3EBI_BEY_A_1085


 29 30  0  0  0  0  0  0  0  0999 V2000
   14.4477    9.8753   10.6816 O   0  0  0  0  0  0  0  0  0  0  0  0
   15.2041   10.2397   11.9320 P   0  0  0  0  0  0  0  0  0  0  0  0
   15.1311    9.1368   12.9554 O   0  0  0  0  0  0  0  0  0  0  0  0
   14.7914    9.0401   10.3277 H   0  0  0  0  0  0  0  0  0  0  0  0
   16.8592   10.4831   11.1556 C   0  0  0  0  0  0  0  0  0  0  0  0
   17.0264   11.8043   10.5910 N   0  0  0  0  0  0  0  0  0  0  0  0
   16.3822   11.9241    9.8093 H   0  0  0  0  0  0  0  0  0  0  0  0
   17.9854   11.9142   10.2613 H   0  0  0  0  0  0  0  0  0  0  0  0
   17.3438    9.2846   10.2794 C   0  0  0  0  0  0  0  0  0  0  0  0
   17.8273    9.6386    8.8703 C   0  0  0  0  0  0  0  0  0  0  0  0
   17.4268    8.6148    7.8120 C   0  0  0  0  0  0  0  0  0  0  0  0
   17.9801    8.6922    6.5306 C   0  0  0  0  0  0  0  0  0  0  0  0
   17.6291    7.7609    5.5457 C   0  0  0  0  0  0  0  0  0  0  0  0
   16.7267    6.7370    5.8450 C   0  0  0  0  0  0  0  0  0  0  0  0
   16.1707    6.6463    7.1186 C   0  0  0  0  0  0  0  0  0  0  0  0
   16.5309    7.5814    8.0980 C   0  0  0  0  0  0  0  0  0  0  0  0
   14.6021   11.8005   12.6424 C   0  0  0  0  0  0  0  0  0  0  0  0
   13.1597   11.7461   13.1559 C   0  0  0  0  0  0  0  0  0  0  0  0
   12.2499   12.1851   12.0441 C   0  0  0  0  0  0  0  0  0  0  0  0
   12.7312   12.3551   10.9050 O   0  0  0  0  0  0  0  0  0  0  0  0
   11.0386   12.3626   12.2906 O   0  0  0  0  0  0  0  0  0  0  0  0
   10.7120   12.2253   13.1581 H   0  0  0  0  0  0  0  0  0  0  0  0
   12.9579   12.6914   14.3451 C   0  0  0  0  0  0  0  0  0  0  0  0
   12.7930   11.9123   15.6383 C   0  0  0  0  0  0  0  0  0  0  0  0
   11.9043   12.3606   16.6121 C   0  0  0  0  0  0  0  0  0  0  0  0
   11.7445   11.6529   17.8066 C   0  0  0  0  0  0  0  0  0  0  0  0
   12.4770   10.4908   18.0378 C   0  0  0  0  0  0  0  0  0  0  0  0
   13.3650   10.0427   17.0633 C   0  0  0  0  0  0  0  0  0  0  0  0
   13.5196   10.7421   15.8648 C   0  0  0  0  0  0  0  0  0  0  0  0
  1  2  1  0  0  0
  2  3  2  0  0  0
  2  5  1  0  0  0
  2 17  1  0  0  0
  5  9  1  0  0  0
  5  6  1  0  0  0
  9 10  1  0  0  0
 10 11  1  0  0  0
 11 12  2  0  0  0
 11 16  1  0  0  0
 12 13  1  0  0  0
 13 14  2  0  0  0
 14 15  1  0  0  0
 15 16  2  0  0  0
 17 18  1  0  0  0
 18 19  1  0  0  0
 18 23  1  0  0  0
 19 20  2  0  0  0
 19 21  1  0  0  0
 23 24  1  0  0  0
 24 25  2  0  0  0
 24 29  1  0  0  0
 25 26  1  0  0  0
 26 27  2  0  0  0
 27 28  1  0  0  0
 28 29  2  0  0  0
  1  4  1  0  0  0
  6  7  1  0  0  0
  6  8  1  0  0  0
 21 22  1  0  0  0
M  END
> <minimizedAffinity>
-9.89680

$$$$
3EBI_BEY_A_1085


 29 30  0  0  0  0  0  0  0  0999 V2000
   15.9273   11.6971   12.2610 O   0  0  0  0  0  0  0  0  0  0  0  0
   14.9702   10.7018   11.6596 P   0  0  0  0  0  0  0  0  0  0  0  0
   14.8104    9.4939   12.5453 O   0  0  0  0  0  0  0  0  0  0  0  0
   15.6208   11.9456   13.1472 H   0  0  0  0  0  0  0  0  0  0  0  0
   13.4962   11.8061   11.5629 C   0  0  0  0  0  0  0  0  0  0  0  0
   13.8149   13.1268   11.0667 N   0  0  0  0  0  0  0  0  0  0  0  0
   14.4204   13.6040   11.7345 H   0  0  0  0  0  0  0  0  0  0  0  0
   12.9546   13.6612   10.9455 H   0  0  0  0  0  0  0  0  0  0  0  0
   12.5556   11.7378   12.8077 C   0  0  0  0  0  0  0  0  0  0  0  0
   12.9491   12.6237   13.9929 C   0  0  0  0  0  0  0  0  0  0  0  0
   12.8551   11.9164   15.3418 C   0  0  0  0  0  0  0  0  0  0  0  0
   12.1201   12.4989   16.3784 C   0  0  0  0  0  0  0  0  0  0  0  0
   12.0180   11.8651   17.6228 C   0  0  0  0  0  0  0  0  0  0  0  0
   12.6454   10.6343   17.8313 C   0  0  0  0  0  0  0  0  0  0  0  0
   13.3780   10.0412   16.8060 C   0  0  0  0  0  0  0  0  0  0  0  0
   13.4714   10.6821   15.5635 C   0  0  0  0  0  0  0  0  0  0  0  0
   15.4944   10.1979    9.9940 C   0  0  0  0  0  0  0  0  0  0  0  0
   16.7353    9.2999    9.9668 C   0  0  0  0  0  0  0  0  0  0  0  0
   17.9515   10.1816    9.9607 C   0  0  0  0  0  0  0  0  0  0  0  0
   17.7974   11.4179    9.8840 O   0  0  0  0  0  0  0  0  0  0  0  0
   19.0802    9.6527   10.0370 O   0  0  0  0  0  0  0  0  0  0  0  0
   19.1580    8.7206   10.0932 H   0  0  0  0  0  0  0  0  0  0  0  0
   16.7641    8.4308    8.7048 C   0  0  0  0  0  0  0  0  0  0  0  0
   16.5205    6.9705    9.0436 C   0  0  0  0  0  0  0  0  0  0  0  0
   16.6344    6.5336   10.3608 C   0  0  0  0  0  0  0  0  0  0  0  0
   16.4137    5.1922   10.6850 C   0  0  0  0  0  0  0  0  0  0  0  0
   16.0804    4.2751    9.6908 C   0  0  0  0  0  0  0  0  0  0  0  0
   15.9660    4.7128    8.3739 C   0  0  0  0  0  0  0  0  0  0  0  0
   16.1762    6.0541    8.0484 C   0  0  0  0  0  0  0  0  0  0  0  0
  1  2  1  0  0  0
  2  3  2  0  0  0
  2  5  1  0  0  0
  2 17  1  0  0  0
  5  9  1  0  0  0
  5  6  1  0  0  0
  9 10  1  0  0  0
 10 11  1  0  0  0
 11 12  2  0  0  0
 11 16  1  0  0  0
 12 13  1  0  0  0
 13 14  2  0  0  0
 14 15  1  0  0  0
 15 16  2  0  0  0
 17 18  1  0  0  0
 18 19  1  0  0  0
 18 23  1  0  0  0
 19 20  2  0  0  0
 19 21  1  0  0  0
 23 24  1  0  0  0
 24 25  2  0  0  0
 24 29  1  0  0  0
 25 26  1  0  0  0
 26 27  2  0  0  0
 27 28  1  0  0  0
 28 29  2  0  0  0
  1  4  1  0  0  0
  6  7  1  0  0  0
  6  8  1  0  0  0
 21 22  1  0  0  0
M  END
> <minimizedAffinity>
-9.85716

$$$$
3EBI_BEY_A_1085


 29 30  0  0  0  0  0  0  0  0999 V2000
   13.8914   10.0631   10.6324 O   0  0  0  0  0  0  0  0  0  0  0  0
   14.6875   11.2381   11.1365 P   0  0  0  0  0  0  0  0  0  0  0  0
   14.1540   12.5352   10.5871 O   0  0  0  0  0  0  0  0  0  0  0  0
   12.9560   10.1855   10.8582 H   0  0  0  0  0  0  0  0  0  0  0  0
   14.4030   10.9720   12.9392 C   0  0  0  0  0  0  0  0  0  0  0  0
   14.7662    9.6415   13.3752 N   0  0  0  0  0  0  0  0  0  0  0  0
   14.1464    8.9595   12.9382 H   0  0  0  0  0  0  0  0  0  0  0  0
   14.6780    9.5802   14.3896 H   0  0  0  0  0  0  0  0  0  0  0  0
   13.0444   11.5319   13.4681 C   0  0  0  0  0  0  0  0  0  0  0  0
   13.1316   12.4677   14.6768 C   0  0  0  0  0  0  0  0  0  0  0  0
   12.8071   11.7851   16.0024 C   0  0  0  0  0  0  0  0  0  0  0  0
   13.5301   10.6543   16.3932 C   0  0  0  0  0  0  0  0  0  0  0  0
   13.2511   10.0148   17.6072 C   0  0  0  0  0  0  0  0  0  0  0  0
   12.2495   10.5142   18.4436 C   0  0  0  0  0  0  0  0  0  0  0  0
   11.5239   11.6420   18.0680 C   0  0  0  0  0  0  0  0  0  0  0  0
   11.8130   12.2765   16.8526 C   0  0  0  0  0  0  0  0  0  0  0  0
   16.4528   11.0640   10.7414 C   0  0  0  0  0  0  0  0  0  0  0  0
   16.8366    9.7045   10.1487 C   0  0  0  0  0  0  0  0  0  0  0  0
   17.5455    8.9137   11.2110 C   0  0  0  0  0  0  0  0  0  0  0  0
   16.8758    8.1603   11.9473 O   0  0  0  0  0  0  0  0  0  0  0  0
   18.7839    9.0296   11.3237 O   0  0  0  0  0  0  0  0  0  0  0  0
   19.2544    9.6050   10.7532 H   0  0  0  0  0  0  0  0  0  0  0  0
   17.7847    9.8667    8.9556 C   0  0  0  0  0  0  0  0  0  0  0  0
   17.4797    8.8443    7.8747 C   0  0  0  0  0  0  0  0  0  0  0  0
   18.0340    8.9876    6.6054 C   0  0  0  0  0  0  0  0  0  0  0  0
   17.7601    8.0541    5.6021 C   0  0  0  0  0  0  0  0  0  0  0  0
   16.9248    6.9697    5.8608 C   0  0  0  0  0  0  0  0  0  0  0  0
   16.3714    6.8266    7.1306 C   0  0  0  0  0  0  0  0  0  0  0  0
   16.6510    7.7522    8.1378 C   0  0  0  0  0  0  0  0  0  0  0  0
  1  2  1  0  0  0
  2  3  2  0  0  0
  2  5  1  0  0  0
  2 17  1  0  0  0
  5  9  1  0  0  0
  5  6  1  0  0  0
  9 10  1  0  0  0
 10 11  1  0  0  0
 11 12  2  0  0  0
 11 16  1  0  0  0
 12 13  1  0  0  0
 13 14  2  0  0  0
 14 15  1  0  0  0
 15 16  2  0  0  0
 17 18  1  0  0  0
 18 19  1  0  0  0
 18 23  1  0  0  0
 19 20  2  0  0  0
 19 21  1  0  0  0
 23 24  1  0  0  0
 24 25  2  0  0  0
 24 29  1  0  0  0
 25 26  1  0  0  0
 26 27  2  0  0  0
 27 28  1  0  0  0
 28 29  2  0  0  0
  1  4  1  0  0  0
  6  7  1  0  0  0
  6  8  1  0  0  0
 21 22  1  0  0  0
M  END
> <minimizedAffinity>
-9.53733

$$$$
3EBI_BEY_A_1085


 29 30  0  0  0  0  0  0  0  0999 V2000
   16.4005   11.9972   10.9085 O   0  0  0  0  0  0  0  0  0  0  0  0
   15.8312   10.6501   11.2688 P   0  0  0  0  0  0  0  0  0  0  0  0
   16.7287    9.9178   12.2318 O   0  0  0  0  0  0  0  0  0  0  0  0
   16.5482   12.5125   11.7170 H   0  0  0  0  0  0  0  0  0  0  0  0
   14.2338   11.2401   11.9769 C   0  0  0  0  0  0  0  0  0  0  0  0
   13.8779   12.5692   11.5307 N   0  0  0  0  0  0  0  0  0  0  0  0
   14.5552   13.2415   11.8910 H   0  0  0  0  0  0  0  0  0  0  0  0
   12.9476   12.8058   11.8754 H   0  0  0  0  0  0  0  0  0  0  0  0
   14.0546   10.9452   13.5000 C   0  0  0  0  0  0  0  0  0  0  0  0
   13.1519   11.9150   14.2675 C   0  0  0  0  0  0  0  0  0  0  0  0
   12.8729   11.4826   15.7041 C   0  0  0  0  0  0  0  0  0  0  0  0
   11.9601   12.2044   16.4786 C   0  0  0  0  0  0  0  0  0  0  0  0
   11.6867   11.8228   17.7978 C   0  0  0  0  0  0  0  0  0  0  0  0
   12.3212   10.7050   18.3454 C   0  0  0  0  0  0  0  0  0  0  0  0
   13.2303    9.9749   17.5836 C   0  0  0  0  0  0  0  0  0  0  0  0
   13.4945   10.3633   16.2635 C   0  0  0  0  0  0  0  0  0  0  0  0
   15.5327    9.6371    9.7897 C   0  0  0  0  0  0  0  0  0  0  0  0
   16.7819    8.9451    9.2351 C   0  0  0  0  0  0  0  0  0  0  0  0
   17.4274    9.8691    8.2421 C   0  0  0  0  0  0  0  0  0  0  0  0
   17.8496    9.3961    7.1669 O   0  0  0  0  0  0  0  0  0  0  0  0
   17.5187   11.0834    8.5191 O   0  0  0  0  0  0  0  0  0  0  0  0
   17.1905   11.4035    9.3364 H   0  0  0  0  0  0  0  0  0  0  0  0
   16.4209    7.6410    8.5157 C   0  0  0  0  0  0  0  0  0  0  0  0
   16.3710    6.4772    9.4902 C   0  0  0  0  0  0  0  0  0  0  0  0
   16.1809    5.1814    9.0172 C   0  0  0  0  0  0  0  0  0  0  0  0
   16.1321    4.1024    9.9040 C   0  0  0  0  0  0  0  0  0  0  0  0
   16.2698    4.3126   11.2741 C   0  0  0  0  0  0  0  0  0  0  0  0
   16.4605    5.6086   11.7465 C   0  0  0  0  0  0  0  0  0  0  0  0
   16.5195    6.6875   10.8622 C   0  0  0  0  0  0  0  0  0  0  0  0
  1  2  1  0  0  0
  2  3  2  0  0  0
  2  5  1  0  0  0
  2 17  1  0  0  0
  5  9  1  0  0  0
  5  6  1  0  0  0
  9 10  1  0  0  0
 10 11  1  0  0  0
 11 12  2  0  0  0
 11 16  1  0  0  0
 12 13  1  0  0  0
 13 14  2  0  0  0
 14 15  1  0  0  0
 15 16  2  0  0  0
 17 18  1  0  0  0
 18 19  1  0  0  0
 18 23  1  0  0  0
 19 20  2  0  0  0
 19 21  1  0  0  0
 23 24  1  0  0  0
 24 25  2  0  0  0
 24 29  1  0  0  0
 25 26  1  0  0  0
 26 27  2  0  0  0
 27 28  1  0  0  0
 28 29  2  0  0  0
  1  4  1  0  0  0
  6  7  1  0  0  0
  6  8  1  0  0  0
 21 22  1  0  0  0
M  END
> <minimizedAffinity>
-9.35898

$$$$
3EBI_BEY_A_1085


 29 30  0  0  0  0  0  0  0  0999 V2000
   15.3064   12.0669   11.1225 O   0  0  0  0  0  0  0  0  0  0  0  0
   15.2018   10.5650   11.1648 P   0  0  0  0  0  0  0  0  0  0  0  0
   13.9009   10.0913   10.5713 O   0  0  0  0  0  0  0  0  0  0  0  0
   15.2020   12.3727   10.2079 H   0  0  0  0  0  0  0  0  0  0  0  0
   16.7053   10.1860   10.1662 C   0  0  0  0  0  0  0  0  0  0  0  0
   17.4718   11.3668    9.8340 N   0  0  0  0  0  0  0  0  0  0  0  0
   16.9246   11.9641    9.2141 H   0  0  0  0  0  0  0  0  0  0  0  0
   18.3351   11.0912    9.3658 H   0  0  0  0  0  0  0  0  0  0  0  0
   16.4725    9.1592    9.0128 C   0  0  0  0  0  0  0  0  0  0  0  0
   17.5091    9.1724    7.8860 C   0  0  0  0  0  0  0  0  0  0  0  0
   17.6632    7.8273    7.1821 C   0  0  0  0  0  0  0  0  0  0  0  0
   16.5298    7.0567    6.9072 C   0  0  0  0  0  0  0  0  0  0  0  0
   16.6484    5.8212    6.2590 C   0  0  0  0  0  0  0  0  0  0  0  0
   17.9075    5.3556    5.8720 C   0  0  0  0  0  0  0  0  0  0  0  0
   19.0446    6.1149    6.1367 C   0  0  0  0  0  0  0  0  0  0  0  0
   18.9148    7.3513    6.7830 C   0  0  0  0  0  0  0  0  0  0  0  0
   15.3901    9.9327   12.8582 C   0  0  0  0  0  0  0  0  0  0  0  0
   15.4643    8.4058   12.9579 C   0  0  0  0  0  0  0  0  0  0  0  0
   14.7356    7.9816   14.2011 C   0  0  0  0  0  0  0  0  0  0  0  0
   14.0181    8.8151   14.7914 O   0  0  0  0  0  0  0  0  0  0  0  0
   14.8653    6.8070   14.6050 O   0  0  0  0  0  0  0  0  0  0  0  0
   15.4127    6.2081   14.1363 H   0  0  0  0  0  0  0  0  0  0  0  0
   16.9160    7.9261   13.0630 C   0  0  0  0  0  0  0  0  0  0  0  0
   17.2659    6.9934   11.9167 C   0  0  0  0  0  0  0  0  0  0  0  0
   16.3020    6.1288   11.4043 C   0  0  0  0  0  0  0  0  0  0  0  0
   16.6120    5.2651   10.3503 C   0  0  0  0  0  0  0  0  0  0  0  0
   17.8926    5.2573    9.8022 C   0  0  0  0  0  0  0  0  0  0  0  0
   18.8558    6.1226   10.3145 C   0  0  0  0  0  0  0  0  0  0  0  0
   18.5464    6.9936   11.3609 C   0  0  0  0  0  0  0  0  0  0  0  0
  1  2  1  0  0  0
  2  3  2  0  0  0
  2  5  1  0  0  0
  2 17  1  0  0  0
  5  9  1  0  0  0
  5  6  1  0  0  0
  9 10  1  0  0  0
 10 11  1  0  0  0
 11 12  2  0  0  0
 11 16  1  0  0  0
 12 13  1  0  0  0
 13 14  2  0  0  0
 14 15  1  0  0  0
 15 16  2  0  0  0
 17 18  1  0  0  0
 18 19  1  0  0  0
 18 23  1  0  0  0
 19 20  2  0  0  0
 19 21  1  0  0  0
 23 24  1  0  0  0
 24 25  2  0  0  0
 24 29  1  0  0  0
 25 26  1  0  0  0
 26 27  2  0  0  0
 27 28  1  0  0  0
 28 29  2  0  0  0
  1  4  1  0  0  0
  6  7  1  0  0  0
  6  8  1  0  0  0
 21 22  1  0  0  0
M  END
> <minimizedAffinity>
-8.81807

$$$$
3EBI_BEY_A_1085


 29 30  0  0  0  0  0  0  0  0999 V2000
   16.4664   11.9629   10.5034 O   0  0  0  0  0  0  0  0  0  0  0  0
   15.8315   10.7873   11.1987 P   0  0  0  0  0  0  0  0  0  0  0  0
   16.5408   10.4676   12.4886 O   0  0  0  0  0  0  0  0  0  0  0  0
   16.4751   12.7263   11.1017 H   0  0  0  0  0  0  0  0  0  0  0  0
   14.1401   11.4979   11.3872 C   0  0  0  0  0  0  0  0  0  0  0  0
   14.0659   12.8862   10.9881 N   0  0  0  0  0  0  0  0  0  0  0  0
   14.6289   13.4529   11.6224 H   0  0  0  0  0  0  0  0  0  0  0  0
   13.0956   13.1988   11.0234 H   0  0  0  0  0  0  0  0  0  0  0  0
   13.4252   11.1177   12.7226 C   0  0  0  0  0  0  0  0  0  0  0  0
   13.2642   12.2497   13.7410 C   0  0  0  0  0  0  0  0  0  0  0  0
   12.9717   11.7607   15.1566 C   0  0  0  0  0  0  0  0  0  0  0  0
   13.5904   10.5996   15.6288 C   0  0  0  0  0  0  0  0  0  0  0  0
   13.3390   10.1353   16.9257 C   0  0  0  0  0  0  0  0  0  0  0  0
   12.4713   10.8417   17.7624 C   0  0  0  0  0  0  0  0  0  0  0  0
   11.8508   12.0019   17.3058 C   0  0  0  0  0  0  0  0  0  0  0  0
   12.1116   12.4598   16.0074 C   0  0  0  0  0  0  0  0  0  0  0  0
   15.7871    9.3230   10.1232 C   0  0  0  0  0  0  0  0  0  0  0  0
   17.0077    8.4064   10.2532 C   0  0  0  0  0  0  0  0  0  0  0  0
   17.9437    8.7088    9.1179 C   0  0  0  0  0  0  0  0  0  0  0  0
   17.4778    9.1996    8.0690 O   0  0  0  0  0  0  0  0  0  0  0  0
   19.1604    8.4648    9.2581 O   0  0  0  0  0  0  0  0  0  0  0  0
   19.4749    8.0961   10.0601 H   0  0  0  0  0  0  0  0  0  0  0  0
   16.6052    6.9302   10.1655 C   0  0  0  0  0  0  0  0  0  0  0  0
   16.3274    6.3586   11.5449 C   0  0  0  0  0  0  0  0  0  0  0  0
   16.6596    7.0913   12.6814 C   0  0  0  0  0  0  0  0  0  0  0  0
   16.4100    6.5757   13.9561 C   0  0  0  0  0  0  0  0  0  0  0  0
   15.8281    5.3186   14.1036 C   0  0  0  0  0  0  0  0  0  0  0  0
   15.4954    4.5867   12.9666 C   0  0  0  0  0  0  0  0  0  0  0  0
   15.7346    5.1033   11.6918 C   0  0  0  0  0  0  0  0  0  0  0  0
  1  2  1  0  0  0
  2  3  2  0  0  0
  2  5  1  0  0  0
  2 17  1  0  0  0
  5  9  1  0  0  0
  5  6  1  0  0  0
  9 10  1  0  0  0
 10 11  1  0  0  0
 11 12  2  0  0  0
 11 16  1  0  0  0
 12 13  1  0  0  0
 13 14  2  0  0  0
 14 15  1  0  0  0
 15 16  2  0  0  0
 17 18  1  0  0  0
 18 19  1  0  0  0
 18 23  1  0  0  0
 19 20  2  0  0  0
 19 21  1  0  0  0
 23 24  1  0  0  0
 24 25  2  0  0  0
 24 29  1  0  0  0
 25 26  1  0  0  0
 26 27  2  0  0  0
 27 28  1  0  0  0
 28 29  2  0  0  0
  1  4  1  0  0  0
  6  7  1  0  0  0
  6  8  1  0  0  0
 21 22  1  0  0  0
M  END
> <minimizedAffinity>
-8.80993

$$$$
3EBI_BEY_A_1085


 29 30  0  0  0  0  0  0  0  0999 V2000
   14.6099   10.0074   10.2602 O   0  0  0  0  0  0  0  0  0  0  0  0
   15.3189   10.7192   11.3823 P   0  0  0  0  0  0  0  0  0  0  0  0
   16.5434   11.4410   10.8836 O   0  0  0  0  0  0  0  0  0  0  0  0
   14.3866   10.6442    9.5634 H   0  0  0  0  0  0  0  0  0  0  0  0
   13.9236   11.8065   11.9039 C   0  0  0  0  0  0  0  0  0  0  0  0
   13.7008   12.9098   10.9955 N   0  0  0  0  0  0  0  0  0  0  0  0
   14.5054   13.5362   11.0176 H   0  0  0  0  0  0  0  0  0  0  0  0
   12.8645   13.4203   11.2792 H   0  0  0  0  0  0  0  0  0  0  0  0
   13.9033   12.1443   13.4285 C   0  0  0  0  0  0  0  0  0  0  0  0
   12.5267   12.1300   14.0987 C   0  0  0  0  0  0  0  0  0  0  0  0
   12.5516   11.6133   15.5343 C   0  0  0  0  0  0  0  0  0  0  0  0
   13.3888   10.5454   15.8705 C   0  0  0  0  0  0  0  0  0  0  0  0
   13.4298   10.0581   17.1825 C   0  0  0  0  0  0  0  0  0  0  0  0
   12.6369   10.6483   18.1700 C   0  0  0  0  0  0  0  0  0  0  0  0
   11.8010   11.7151   17.8493 C   0  0  0  0  0  0  0  0  0  0  0  0
   11.7696   12.1973   16.5341 C   0  0  0  0  0  0  0  0  0  0  0  0
   15.7635    9.5732   12.7209 C   0  0  0  0  0  0  0  0  0  0  0  0
   15.7917    8.0985   12.3069 C   0  0  0  0  0  0  0  0  0  0  0  0
   15.4090    7.2697   13.4998 C   0  0  0  0  0  0  0  0  0  0  0  0
   14.5324    7.7021   14.2762 O   0  0  0  0  0  0  0  0  0  0  0  0
   15.9753    6.1709   13.6775 O   0  0  0  0  0  0  0  0  0  0  0  0
   16.6293    5.8779   13.0738 H   0  0  0  0  0  0  0  0  0  0  0  0
   17.1939    7.6752   11.8561 C   0  0  0  0  0  0  0  0  0  0  0  0
   17.3218    7.7374   10.3440 C   0  0  0  0  0  0  0  0  0  0  0  0
   18.3857    8.4232    9.7635 C   0  0  0  0  0  0  0  0  0  0  0  0
   18.5137    8.4885    8.3734 C   0  0  0  0  0  0  0  0  0  0  0  0
   17.5742    7.8698    7.5517 C   0  0  0  0  0  0  0  0  0  0  0  0
   16.5109    7.1836    8.1329 C   0  0  0  0  0  0  0  0  0  0  0  0
   16.3857    7.1083    9.5214 C   0  0  0  0  0  0  0  0  0  0  0  0
  1  2  1  0  0  0
  2  3  2  0  0  0
  2  5  1  0  0  0
  2 17  1  0  0  0
  5  9  1  0  0  0
  5  6  1  0  0  0
  9 10  1  0  0  0
 10 11  1  0  0  0
 11 12  2  0  0  0
 11 16  1  0  0  0
 12 13  1  0  0  0
 13 14  2  0  0  0
 14 15  1  0  0  0
 15 16  2  0  0  0
 17 18  1  0  0  0
 18 19  1  0  0  0
 18 23  1  0  0  0
 19 20  2  0  0  0
 19 21  1  0  0  0
 23 24  1  0  0  0
 24 25  2  0  0  0
 24 29  1  0  0  0
 25 26  1  0  0  0
 26 27  2  0  0  0
 27 28  1  0  0  0
 28 29  2  0  0  0
  1  4  1  0  0  0
  6  7  1  0  0  0
  6  8  1  0  0  0
 21 22  1  0  0  0
M  END
> <minimizedAffinity>
-8.78657

$$$$
3EBI_BEY_A_1085


 29 30  0  0  0  0  0  0  0  0999 V2000
   17.8560   11.8010    9.6707 O   0  0  0  0  0  0  0  0  0  0  0  0
   17.7904   10.2969    9.6276 P   0  0  0  0  0  0  0  0  0  0  0  0
   19.0549    9.6795   10.1650 O   0  0  0  0  0  0  0  0  0  0  0  0
   18.0335   12.0909   10.5792 H   0  0  0  0  0  0  0  0  0  0  0  0
   16.2988   10.0855   10.6915 C   0  0  0  0  0  0  0  0  0  0  0  0
   15.3851   11.2036   10.6070 N   0  0  0  0  0  0  0  0  0  0  0  0
   15.8303   12.0365   10.9924 H   0  0  0  0  0  0  0  0  0  0  0  0
   14.5402   10.9931   11.1382 H   0  0  0  0  0  0  0  0  0  0  0  0
   16.5991    9.5378   12.1229 C   0  0  0  0  0  0  0  0  0  0  0  0
   15.4950    8.6896   12.7598 C   0  0  0  0  0  0  0  0  0  0  0  0
   15.9977    7.3743   13.3481 C   0  0  0  0  0  0  0  0  0  0  0  0
   17.2471    7.3293   13.9736 C   0  0  0  0  0  0  0  0  0  0  0  0
   17.7259    6.1338   14.5232 C   0  0  0  0  0  0  0  0  0  0  0  0
   16.9469    4.9758   14.4579 C   0  0  0  0  0  0  0  0  0  0  0  0
   15.6989    5.0076   13.8405 C   0  0  0  0  0  0  0  0  0  0  0  0
   15.2275    6.2097   13.2964 C   0  0  0  0  0  0  0  0  0  0  0  0
   17.4592    9.6936    7.9455 C   0  0  0  0  0  0  0  0  0  0  0  0
   17.6510    8.1843    7.7664 C   0  0  0  0  0  0  0  0  0  0  0  0
   17.9671    7.9205    6.3217 C   0  0  0  0  0  0  0  0  0  0  0  0
   19.0293    7.3300    6.0368 O   0  0  0  0  0  0  0  0  0  0  0  0
   17.1565    8.2955    5.4488 O   0  0  0  0  0  0  0  0  0  0  0  0
   16.3686    8.7362    5.6996 H   0  0  0  0  0  0  0  0  0  0  0  0
   16.3756    7.4158    8.1285 C   0  0  0  0  0  0  0  0  0  0  0  0
   16.6838    6.2581    9.0620 C   0  0  0  0  0  0  0  0  0  0  0  0
   17.7008    6.3772   10.0057 C   0  0  0  0  0  0  0  0  0  0  0  0
   17.9946    5.3186   10.8695 C   0  0  0  0  0  0  0  0  0  0  0  0
   17.2738    4.1290   10.7931 C   0  0  0  0  0  0  0  0  0  0  0  0
   16.2564    4.0109    9.8497 C   0  0  0  0  0  0  0  0  0  0  0  0
   15.9541    5.0701    8.9919 C   0  0  0  0  0  0  0  0  0  0  0  0
  1  2  1  0  0  0
  2  3  2  0  0  0
  2  5  1  0  0  0
  2 17  1  0  0  0
  5  9  1  0  0  0
  5  6  1  0  0  0
  9 10  1  0  0  0
 10 11  1  0  0  0
 11 12  2  0  0  0
 11 16  1  0  0  0
 12 13  1  0  0  0
 13 14  2  0  0  0
 14 15  1  0  0  0
 15 16  2  0  0  0
 17 18  1  0  0  0
 18 19  1  0  0  0
 18 23  1  0  0  0
 19 20  2  0  0  0
 19 21  1  0  0  0
 23 24  1  0  0  0
 24 25  2  0  0  0
 24 29  1  0  0  0
 25 26  1  0  0  0
 26 27  2  0  0  0
 27 28  1  0  0  0
 28 29  2  0  0  0
  1  4  1  0  0  0
  6  7  1  0  0  0
  6  8  1  0  0  0
 21 22  1  0  0  0
M  END
> <minimizedAffinity>
-8.63162

$$$$
3EBI_BEY_A_1085


 29 30  0  0  0  0  0  0  0  0999 V2000
   19.4716    4.5147    8.6455 O   0  0  0  0  0  0  0  0  0  0  0  0
   18.7438    5.2350    7.5410 P   0  0  0  0  0  0  0  0  0  0  0  0
   19.2650    4.8280    6.1875 O   0  0  0  0  0  0  0  0  0  0  0  0
   19.3976    3.5570    8.5106 H   0  0  0  0  0  0  0  0  0  0  0  0
   17.0437    4.6415    7.9394 C   0  0  0  0  0  0  0  0  0  0  0  0
   16.2872    4.2721    6.7632 N   0  0  0  0  0  0  0  0  0  0  0  0
   16.1173    5.1013    6.1940 H   0  0  0  0  0  0  0  0  0  0  0  0
   15.3956    3.8655    7.0463 H   0  0  0  0  0  0  0  0  0  0  0  0
   16.2948    5.4985    9.0088 C   0  0  0  0  0  0  0  0  0  0  0  0
   16.4131    5.0144   10.4566 C   0  0  0  0  0  0  0  0  0  0  0  0
   16.8539    6.1032   11.4306 C   0  0  0  0  0  0  0  0  0  0  0  0
   16.0555    6.4055   12.5375 C   0  0  0  0  0  0  0  0  0  0  0  0
   16.4430    7.3984   13.4455 C   0  0  0  0  0  0  0  0  0  0  0  0
   17.6428    8.0881   13.2536 C   0  0  0  0  0  0  0  0  0  0  0  0
   18.4494    7.7945   12.1569 C   0  0  0  0  0  0  0  0  0  0  0  0
   18.0541    6.7970   11.2558 C   0  0  0  0  0  0  0  0  0  0  0  0
   18.8483    7.0383    7.7412 C   0  0  0  0  0  0  0  0  0  0  0  0
   17.5784    7.7936    7.3365 C   0  0  0  0  0  0  0  0  0  0  0  0
   17.3569    7.5832    5.8658 C   0  0  0  0  0  0  0  0  0  0  0  0
   18.2624    7.9052    5.0693 O   0  0  0  0  0  0  0  0  0  0  0  0
   16.2758    7.0886    5.4834 O   0  0  0  0  0  0  0  0  0  0  0  0
   15.6181    6.8587    6.1100 H   0  0  0  0  0  0  0  0  0  0  0  0
   17.7220    9.2979    7.5918 C   0  0  0  0  0  0  0  0  0  0  0  0
   17.0533    9.6953    8.8962 C   0  0  0  0  0  0  0  0  0  0  0  0
   15.8921    9.0468    9.3084 C   0  0  0  0  0  0  0  0  0  0  0  0
   15.2669    9.4041   10.5061 C   0  0  0  0  0  0  0  0  0  0  0  0
   15.7981   10.4178   11.3004 C   0  0  0  0  0  0  0  0  0  0  0  0
   16.9598   11.0655   10.8879 C   0  0  0  0  0  0  0  0  0  0  0  0
   17.5920   10.7040    9.6967 C   0  0  0  0  0  0  0  0  0  0  0  0
  1  2  1  0  0  0
  2  3  2  0  0  0
  2  5  1  0  0  0
  2 17  1  0  0  0
  5  9  1  0  0  0
  5  6  1  0  0  0
  9 10  1  0  0  0
 10 11  1  0  0  0
 11 12  2  0  0  0
 11 16  1  0  0  0
 12 13  1  0  0  0
 13 14  2  0  0  0
 14 15  1  0  0  0
 15 16  2  0  0  0
 17 18  1  0  0  0
 18 19  1  0  0  0
 18 23  1  0  0  0
 19 20  2  0  0  0
 19 21  1  0  0  0
 23 24  1  0  0  0
 24 25  2  0  0  0
 24 29  1  0  0  0
 25 26  1  0  0  0
 26 27  2  0  0  0
 27 28  1  0  0  0
 28 29  2  0  0  0
  1  4  1  0  0  0
  6  7  1  0  0  0
  6  8  1  0  0  0
 21 22  1  0  0  0
M  END
> <minimizedAffinity>
-8.62397

$$$$
3EBI_BEY_A_1085


 29 30  0  0  0  0  0  0  0  0999 V2000
   16.8598    9.8866   12.1000 O   0  0  0  0  0  0  0  0  0  0  0  0
   16.3511   10.4100   10.7825 P   0  0  0  0  0  0  0  0  0  0  0  0
   16.7595   11.8443   10.5704 O   0  0  0  0  0  0  0  0  0  0  0  0
   17.8235    9.9900   12.1386 H   0  0  0  0  0  0  0  0  0  0  0  0
   17.1910    9.1839    9.6905 C   0  0  0  0  0  0  0  0  0  0  0  0
   17.7749    9.7874    8.5127 N   0  0  0  0  0  0  0  0  0  0  0  0
   17.0340   10.1597    7.9187 H   0  0  0  0  0  0  0  0  0  0  0  0
   18.3033    9.0839    7.9966 H   0  0  0  0  0  0  0  0  0  0  0  0
   16.3919    7.8601    9.4716 C   0  0  0  0  0  0  0  0  0  0  0  0
   17.0856    6.5757    9.9337 C   0  0  0  0  0  0  0  0  0  0  0  0
   16.3690    5.8744   11.0840 C   0  0  0  0  0  0  0  0  0  0  0  0
   15.9174    6.6215   12.1757 C   0  0  0  0  0  0  0  0  0  0  0  0
   15.2543    5.9985   13.2400 C   0  0  0  0  0  0  0  0  0  0  0  0
   15.0302    4.6198   13.2097 C   0  0  0  0  0  0  0  0  0  0  0  0
   15.4718    3.8640   12.1266 C   0  0  0  0  0  0  0  0  0  0  0  0
   16.1316    4.4975   11.0651 C   0  0  0  0  0  0  0  0  0  0  0  0
   14.5461   10.2420   10.6525 C   0  0  0  0  0  0  0  0  0  0  0  0
   13.7642   10.9474   11.7651 C   0  0  0  0  0  0  0  0  0  0  0  0
   13.2088   12.2272   11.2084 C   0  0  0  0  0  0  0  0  0  0  0  0
   11.9701   12.3644   11.1371 O   0  0  0  0  0  0  0  0  0  0  0  0
   14.0018   13.1178   10.8375 O   0  0  0  0  0  0  0  0  0  0  0  0
   14.9261   12.9801   10.9058 H   0  0  0  0  0  0  0  0  0  0  0  0
   14.6731   11.2918   12.9500 C   0  0  0  0  0  0  0  0  0  0  0  0
   13.8625   11.4882   14.2192 C   0  0  0  0  0  0  0  0  0  0  0  0
   13.7619   10.4550   15.1473 C   0  0  0  0  0  0  0  0  0  0  0  0
   13.0182   10.6232   16.3185 C   0  0  0  0  0  0  0  0  0  0  0  0
   12.3650   11.8280   16.5686 C   0  0  0  0  0  0  0  0  0  0  0  0
   12.4666   12.8610   15.6404 C   0  0  0  0  0  0  0  0  0  0  0  0
   13.2169   12.6993   14.4742 C   0  0  0  0  0  0  0  0  0  0  0  0
  1  2  1  0  0  0
  2  3  2  0  0  0
  2  5  1  0  0  0
  2 17  1  0  0  0
  5  9  1  0  0  0
  5  6  1  0  0  0
  9 10  1  0  0  0
 10 11  1  0  0  0
 11 12  2  0  0  0
 11 16  1  0  0  0
 12 13  1  0  0  0
 13 14  2  0  0  0
 14 15  1  0  0  0
 15 16  2  0  0  0
 17 18  1  0  0  0
 18 19  1  0  0  0
 18 23  1  0  0  0
 19 20  2  0  0  0
 19 21  1  0  0  0
 23 24  1  0  0  0
 24 25  2  0  0  0
 24 29  1  0  0  0
 25 26  1  0  0  0
 26 27  2  0  0  0
 27 28  1  0  0  0
 28 29  2  0  0  0
  1  4  1  0  0  0
  6  7  1  0  0  0
  6  8  1  0  0  0
 21 22  1  0  0  0
M  END
> <minimizedAffinity>
-8.60238

$$$$
