1KZN_CBN_A_1


 54 58  0  0  0  0  0  0  0  0999 V2000
   19.1904   31.7289   36.9229 Cl  0  0  0  0  0  0  0  0  0  0  0  0
   20.8582   30.7252   34.9033 C   0  0  0  0  0  0  0  0  0  0  0  0
   19.9391   31.7505   35.3483 C   0  0  0  0  0  0  0  0  0  0  0  0
   19.6547   32.8496   34.4665 C   0  0  0  0  0  0  0  0  0  0  0  0
   18.7178   35.1573   34.1633 C   0  0  0  0  0  0  0  0  0  0  0  0
   19.2880   35.2233   32.7872 C   0  0  0  0  0  0  0  0  0  0  0  0
   20.0328   34.1669   32.3145 C   0  0  0  0  0  0  0  0  0  0  0  0
   20.2743   32.9394   33.1391 C   0  0  0  0  0  0  0  0  0  0  0  0
   21.1781   31.8881   32.6939 C   0  0  0  0  0  0  0  0  0  0  0  0
   21.4752   30.7929   33.5583 C   0  0  0  0  0  0  0  0  0  0  0  0
   20.6016   34.2003   31.0802 O   0  0  0  0  0  0  0  0  0  0  0  0
   18.8607   33.9536   34.9114 O   0  0  0  0  0  0  0  0  0  0  0  0
   17.9784   35.9960   34.5809 O   0  0  0  0  0  0  0  0  0  0  0  0
   20.4788   34.9471   30.5278 H   0  0  0  0  0  0  0  0  0  0  0  0
   17.6305   36.6831   31.6391 C   0  0  0  0  0  0  0  0  0  0  0  0
   18.8872   36.3336   31.9176 N   0  0  0  0  0  0  0  0  0  0  0  0
   17.4109   37.8223   31.4989 O   0  0  0  0  0  0  0  0  0  0  0  0
   19.6055   36.8655   31.5049 H   0  0  0  0  0  0  0  0  0  0  0  0
   16.5423   35.7190   31.3942 C   0  0  0  0  0  0  0  0  0  0  0  0
   16.7694   34.5352   30.5537 C   0  0  0  0  0  0  0  0  0  0  0  0
   15.6586   33.7062   30.1679 C   0  0  0  0  0  0  0  0  0  0  0  0
   14.3251   34.0762   30.6227 C   0  0  0  0  0  0  0  0  0  0  0  0
   14.0924   35.2299   31.4779 C   0  0  0  0  0  0  0  0  0  0  0  0
   15.2024   36.0410   31.8801 C   0  0  0  0  0  0  0  0  0  0  0  0
   13.2530   33.2867   30.2928 O   0  0  0  0  0  0  0  0  0  0  0  0
   13.3744   32.5373   29.7436 H   0  0  0  0  0  0  0  0  0  0  0  0
   15.8856   32.4681   29.3307 C   0  0  0  0  0  0  0  0  0  0  0  0
   15.7344   31.1325   30.1151 C   0  0  0  0  0  0  0  0  0  0  0  0
   16.6342   30.4372   30.8324 C   0  0  0  0  0  0  0  0  0  0  0  0
   16.2044   29.2104   31.5151 C   0  0  0  0  0  0  0  0  0  0  0  0
   17.9835   30.9569   31.0099 C   0  0  0  0  0  0  0  0  0  0  0  0
   21.1232   29.7103   35.8190 O   0  0  0  0  0  0  0  0  0  0  0  0
   18.6726   28.1464   34.7275 C   0  0  0  0  0  0  0  0  0  0  0  0
   19.5523   26.2948   33.4788 C   0  0  0  0  0  0  0  0  0  0  0  0
   20.0485   26.2982   36.0107 C   0  0  0  0  0  0  0  0  0  0  0  0
   20.5805   27.1737   37.1696 C   0  0  0  0  0  0  0  0  0  0  0  0
   21.9670   27.7363   36.8073 C   0  0  0  0  0  0  0  0  0  0  0  0
   21.7996   28.5171   35.4696 C   0  0  0  0  0  0  0  0  0  0  0  0
   19.8452   27.1520   34.7069 C   0  0  0  0  0  0  0  0  0  0  0  0
   21.0642   27.8396   34.4490 O   0  0  0  0  0  0  0  0  0  0  0  0
   22.8731   26.6292   36.7446 O   0  0  0  0  0  0  0  0  0  0  0  0
   22.5457   25.9793   36.1033 H   0  0  0  0  0  0  0  0  0  0  0  0
   18.7596   24.2815   36.4490 C   0  0  0  0  0  0  0  0  0  0  0  0
   18.8457   25.7020   36.4793 O   0  0  0  0  0  0  0  0  0  0  0  0
   20.6610   26.4073   38.3741 O   0  0  0  0  0  0  0  0  0  0  0  0
   19.9477   26.7980   39.4854 C   0  0  0  0  0  0  0  0  0  0  0  0
   19.4790   27.9137   39.5977 O   0  0  0  0  0  0  0  0  0  0  0  0
   19.3883   23.8233   41.5425 C   0  0  0  0  0  0  0  0  0  0  0  0
   19.1730   24.4716   40.4082 C   0  0  0  0  0  0  0  0  0  0  0  0
   19.7969   25.7788   40.5004 C   0  0  0  0  0  0  0  0  0  0  0  0
   20.4414   25.9154   41.8049 N   0  0  0  0  0  0  0  0  0  0  0  0
   20.0990   24.6653   42.4903 C   0  0  0  0  0  0  0  0  0  0  0  0
   20.2765   24.6608   43.9457 C   0  0  0  0  0  0  0  0  0  0  0  0
   20.9780   26.6682   42.1432 H   0  0  0  0  0  0  0  0  0  0  0  0
 43 44  1  0  0  0
 33 39  1  0  0  0
 34 39  1  0  0  0
 35 36  1  0  0  0
 35 39  1  0  0  0
 35 44  1  0  0  0
 36 37  1  0  0  0
 36 45  1  0  0  0
 37 38  1  0  0  0
 37 41  1  0  0  0
 38 40  1  0  0  0
 38 32  1  0  0  0
 39 40  1  0  0  0
  1  3  1  0  0  0
  2  3  2  0  0  0
  2 10  1  0  0  0
  2 32  1  0  0  0
  3  4  1  0  0  0
  4  8  2  0  0  0
  4 12  1  0  0  0
  5  6  1  0  0  0
  5 12  1  0  0  0
  5 13  2  0  0  0
  6  7  2  0  0  0
  6 16  1  0  0  0
  7  8  1  0  0  0
  7 11  1  0  0  0
  8  9  1  0  0  0
  9 10  2  0  0  0
 15 19  1  0  0  0
 15 16  1  0  0  0
 15 17  2  0  0  0
 19 20  2  0  0  0
 19 24  1  0  0  0
 20 21  1  0  0  0
 21 22  2  0  0  0
 21 27  1  0  0  0
 22 23  1  0  0  0
 22 25  1  0  0  0
 23 24  2  0  0  0
 27 28  1  0  0  0
 28 29  2  0  0  0
 29 30  1  0  0  0
 29 31  1  0  0  0
 45 46  1  0  0  0
 48 49  1  0  0  0
 48 52  2  0  0  0
 49 50  2  0  0  0
 50 51  1  0  0  0
 50 46  1  0  0  0
 51 52  1  0  0  0
 52 53  1  0  0  0
 46 47  2  0  0  0
 16 18  1  0  0  0
 11 14  1  0  0  0
 25 26  1  0  0  0
 51 54  1  0  0  0
 41 42  1  0  0  0
M  END
> <minimizedAffinity>
-9.81610

$$$$
1KZN_CBN_A_1


 54 58  0  0  0  0  0  0  0  0999 V2000
   19.0567   31.5405   36.6882 Cl  0  0  0  0  0  0  0  0  0  0  0  0
   21.0517   30.7925   34.8638 C   0  0  0  0  0  0  0  0  0  0  0  0
   20.0046   31.7195   35.2357 C   0  0  0  0  0  0  0  0  0  0  0  0
   19.7556   32.8530   34.3873 C   0  0  0  0  0  0  0  0  0  0  0  0
   18.6910   35.1054   34.0901 C   0  0  0  0  0  0  0  0  0  0  0  0
   19.4326   35.3030   32.8117 C   0  0  0  0  0  0  0  0  0  0  0  0
   20.3137   34.3348   32.3868 C   0  0  0  0  0  0  0  0  0  0  0  0
   20.5377   33.0744   33.1653 C   0  0  0  0  0  0  0  0  0  0  0  0
   21.5718   32.1204   32.7897 C   0  0  0  0  0  0  0  0  0  0  0  0
   21.8353   30.9929   33.6228 C   0  0  0  0  0  0  0  0  0  0  0  0
   21.0375   34.4902   31.2465 O   0  0  0  0  0  0  0  0  0  0  0  0
   18.8260   33.8670   34.7808 O   0  0  0  0  0  0  0  0  0  0  0  0
   17.8396   35.8610   34.4489 O   0  0  0  0  0  0  0  0  0  0  0  0
   20.9318   35.2621   30.7260 H   0  0  0  0  0  0  0  0  0  0  0  0
   18.0673   36.4521   31.0764 C   0  0  0  0  0  0  0  0  0  0  0  0
   19.0662   36.4387   31.9601 N   0  0  0  0  0  0  0  0  0  0  0  0
   17.4915   37.4592   30.9355 O   0  0  0  0  0  0  0  0  0  0  0  0
   19.6021   37.2598   32.0477 H   0  0  0  0  0  0  0  0  0  0  0  0
   17.7254   35.3153   30.2022 C   0  0  0  0  0  0  0  0  0  0  0  0
   16.5823   34.4478   30.5189 C   0  0  0  0  0  0  0  0  0  0  0  0
   16.3720   33.2371   29.7705 C   0  0  0  0  0  0  0  0  0  0  0  0
   17.3164   32.9015   28.7133 C   0  0  0  0  0  0  0  0  0  0  0  0
   18.4354   33.7666   28.3730 C   0  0  0  0  0  0  0  0  0  0  0  0
   18.6299   34.9832   29.1036 C   0  0  0  0  0  0  0  0  0  0  0  0
   17.1224   31.7677   27.9659 O   0  0  0  0  0  0  0  0  0  0  0  0
   16.4094   31.1927   28.1633 H   0  0  0  0  0  0  0  0  0  0  0  0
   15.1808   32.3547   30.0665 C   0  0  0  0  0  0  0  0  0  0  0  0
   13.9280   32.6632   29.1965 C   0  0  0  0  0  0  0  0  0  0  0  0
   12.7649   33.2535   29.5229 C   0  0  0  0  0  0  0  0  0  0  0  0
   11.7544   33.4600   28.4779 C   0  0  0  0  0  0  0  0  0  0  0  0
   12.5629   33.7710   30.8697 C   0  0  0  0  0  0  0  0  0  0  0  0
   21.2704   29.7392   35.7478 O   0  0  0  0  0  0  0  0  0  0  0  0
   18.7332   28.2158   34.8071 C   0  0  0  0  0  0  0  0  0  0  0  0
   19.5060   26.3449   33.5171 C   0  0  0  0  0  0  0  0  0  0  0  0
   20.1488   26.3474   36.0158 C   0  0  0  0  0  0  0  0  0  0  0  0
   20.7626   27.2169   37.1383 C   0  0  0  0  0  0  0  0  0  0  0  0
   22.1354   27.7536   36.6936 C   0  0  0  0  0  0  0  0  0  0  0  0
   21.9042   28.5331   35.3647 C   0  0  0  0  0  0  0  0  0  0  0  0
   19.8850   27.2007   34.7226 C   0  0  0  0  0  0  0  0  0  0  0  0
   21.0988   27.8656   34.3913 O   0  0  0  0  0  0  0  0  0  0  0  0
   23.0167   26.6304   36.5830 O   0  0  0  0  0  0  0  0  0  0  0  0
   22.6411   25.9844   35.9645 H   0  0  0  0  0  0  0  0  0  0  0  0
   18.7984   24.3662   36.4301 C   0  0  0  0  0  0  0  0  0  0  0  0
   18.9650   25.7742   36.5561 O   0  0  0  0  0  0  0  0  0  0  0  0
   20.8996   26.4529   38.3392 O   0  0  0  0  0  0  0  0  0  0  0  0
   20.1885   26.8083   39.4637 C   0  0  0  0  0  0  0  0  0  0  0  0
   19.7796   27.9385   39.6440 O   0  0  0  0  0  0  0  0  0  0  0  0
   19.4460   23.7341   41.3054 C   0  0  0  0  0  0  0  0  0  0  0  0
   19.2960   24.4603   40.2084 C   0  0  0  0  0  0  0  0  0  0  0  0
   19.9636   25.7339   40.4055 C   0  0  0  0  0  0  0  0  0  0  0  0
   20.5645   25.7631   41.7373 N   0  0  0  0  0  0  0  0  0  0  0  0
   20.1519   24.4867   42.3290 C   0  0  0  0  0  0  0  0  0  0  0  0
   20.2758   24.3839   43.7864 C   0  0  0  0  0  0  0  0  0  0  0  0
   21.1157   26.4718   42.1413 H   0  0  0  0  0  0  0  0  0  0  0  0
 43 44  1  0  0  0
 33 39  1  0  0  0
 34 39  1  0  0  0
 35 36  1  0  0  0
 35 39  1  0  0  0
 35 44  1  0  0  0
 36 37  1  0  0  0
 36 45  1  0  0  0
 37 38  1  0  0  0
 37 41  1  0  0  0
 38 40  1  0  0  0
 38 32  1  0  0  0
 39 40  1  0  0  0
  1  3  1  0  0  0
  2  3  2  0  0  0
  2 10  1  0  0  0
  2 32  1  0  0  0
  3  4  1  0  0  0
  4  8  2  0  0  0
  4 12  1  0  0  0
  5  6  1  0  0  0
  5 12  1  0  0  0
  5 13  2  0  0  0
  6  7  2  0  0  0
  6 16  1  0  0  0
  7  8  1  0  0  0
  7 11  1  0  0  0
  8  9  1  0  0  0
  9 10  2  0  0  0
 15 19  1  0  0  0
 15 16  1  0  0  0
 15 17  2  0  0  0
 19 20  2  0  0  0
 19 24  1  0  0  0
 20 21  1  0  0  0
 21 22  2  0  0  0
 21 27  1  0  0  0
 22 23  1  0  0  0
 22 25  1  0  0  0
 23 24  2  0  0  0
 27 28  1  0  0  0
 28 29  2  0  0  0
 29 30  1  0  0  0
 29 31  1  0  0  0
 45 46  1  0  0  0
 48 49  1  0  0  0
 48 52  2  0  0  0
 49 50  2  0  0  0
 50 51  1  0  0  0
 50 46  1  0  0  0
 51 52  1  0  0  0
 52 53  1  0  0  0
 46 47  2  0  0  0
 16 18  1  0  0  0
 11 14  1  0  0  0
 25 26  1  0  0  0
 51 54  1  0  0  0
 41 42  1  0  0  0
M  END
> <minimizedAffinity>
-8.93210

$$$$
1KZN_CBN_A_1


 54 58  0  0  0  0  0  0  0  0999 V2000
   19.5385   31.6138   36.5157 Cl  0  0  0  0  0  0  0  0  0  0  0  0
   20.4279   30.7773   33.9904 C   0  0  0  0  0  0  0  0  0  0  0  0
   19.8111   31.8029   34.8038 C   0  0  0  0  0  0  0  0  0  0  0  0
   19.4347   33.0423   34.1802 C   0  0  0  0  0  0  0  0  0  0  0  0
   18.7564   35.4438   34.4392 C   0  0  0  0  0  0  0  0  0  0  0  0
   18.9206   35.6631   32.9735 C   0  0  0  0  0  0  0  0  0  0  0  0
   19.3600   34.6266   32.1818 C   0  0  0  0  0  0  0  0  0  0  0  0
   19.6628   33.2731   32.7489 C   0  0  0  0  0  0  0  0  0  0  0  0
   20.2616   32.2233   31.9368 C   0  0  0  0  0  0  0  0  0  0  0  0
   20.6456   30.9893   32.5406 C   0  0  0  0  0  0  0  0  0  0  0  0
   19.5585   34.7925   30.8471 O   0  0  0  0  0  0  0  0  0  0  0  0
   18.9470   34.1342   34.9657 O   0  0  0  0  0  0  0  0  0  0  0  0
   18.2787   36.2737   35.1517 O   0  0  0  0  0  0  0  0  0  0  0  0
   19.3829   35.6214   30.4469 H   0  0  0  0  0  0  0  0  0  0  0  0
   17.1652   37.3168   32.3575 C   0  0  0  0  0  0  0  0  0  0  0  0
   18.4385   36.9220   32.3972 N   0  0  0  0  0  0  0  0  0  0  0  0
   16.9562   38.4609   32.4724 O   0  0  0  0  0  0  0  0  0  0  0  0
   19.1107   37.5263   32.0071 H   0  0  0  0  0  0  0  0  0  0  0  0
   16.0324   36.4176   32.0718 C   0  0  0  0  0  0  0  0  0  0  0  0
   16.1425   35.3864   31.0306 C   0  0  0  0  0  0  0  0  0  0  0  0
   14.9768   34.6438   30.6309 C   0  0  0  0  0  0  0  0  0  0  0  0
   13.7057   34.9473   31.2746 C   0  0  0  0  0  0  0  0  0  0  0  0
   13.5907   35.9465   32.3257 C   0  0  0  0  0  0  0  0  0  0  0  0
   14.7567   36.6687   32.7387 C   0  0  0  0  0  0  0  0  0  0  0  0
   12.5852   34.2341   30.9322 O   0  0  0  0  0  0  0  0  0  0  0  0
   12.6310   33.5844   30.2586 H   0  0  0  0  0  0  0  0  0  0  0  0
   15.0858   33.5584   29.5843 C   0  0  0  0  0  0  0  0  0  0  0  0
   15.5478   32.1807   30.1413 C   0  0  0  0  0  0  0  0  0  0  0  0
   16.7199   31.5359   30.0072 C   0  0  0  0  0  0  0  0  0  0  0  0
   16.9036   30.2463   30.6849 C   0  0  0  0  0  0  0  0  0  0  0  0
   17.8193   32.1641   29.2868 C   0  0  0  0  0  0  0  0  0  0  0  0
   20.8061   29.6175   34.6617 O   0  0  0  0  0  0  0  0  0  0  0  0
   21.9166   27.6212   32.5582 C   0  0  0  0  0  0  0  0  0  0  0  0
   24.2971   27.5717   32.8622 C   0  0  0  0  0  0  0  0  0  0  0  0
   22.8798   26.7013   34.8346 C   0  0  0  0  0  0  0  0  0  0  0  0
   21.6782   27.0452   35.7460 C   0  0  0  0  0  0  0  0  0  0  0  0
   21.8893   28.4267   36.3920 C   0  0  0  0  0  0  0  0  0  0  0  0
   22.0916   29.4413   35.2272 C   0  0  0  0  0  0  0  0  0  0  0  0
   22.9973   27.7243   33.6472 C   0  0  0  0  0  0  0  0  0  0  0  0
   23.0040   29.0329   34.2063 O   0  0  0  0  0  0  0  0  0  0  0  0
   23.0015   28.3134   37.2868 O   0  0  0  0  0  0  0  0  0  0  0  0
   23.7782   27.9978   36.7989 H   0  0  0  0  0  0  0  0  0  0  0  0
   23.8135   24.5004   34.3826 C   0  0  0  0  0  0  0  0  0  0  0  0
   22.6810   25.3625   34.3989 O   0  0  0  0  0  0  0  0  0  0  0  0
   21.5223   26.0482   36.7590 O   0  0  0  0  0  0  0  0  0  0  0  0
   20.2653   25.7351   37.2264 C   0  0  0  0  0  0  0  0  0  0  0  0
   19.3146   25.5854   36.4842 O   0  0  0  0  0  0  0  0  0  0  0  0
   20.2376   26.0129   40.8755 C   0  0  0  0  0  0  0  0  0  0  0  0
   20.6801   26.4590   39.7099 C   0  0  0  0  0  0  0  0  0  0  0  0
   20.1683   25.5944   38.6626 C   0  0  0  0  0  0  0  0  0  0  0  0
   19.3474   24.5441   39.2615 N   0  0  0  0  0  0  0  0  0  0  0  0
   19.4686   24.7919   40.7015 C   0  0  0  0  0  0  0  0  0  0  0  0
   19.0719   23.6868   41.5796 C   0  0  0  0  0  0  0  0  0  0  0  0
   18.8346   23.8378   38.8062 H   0  0  0  0  0  0  0  0  0  0  0  0
 43 44  1  0  0  0
 33 39  1  0  0  0
 34 39  1  0  0  0
 35 36  1  0  0  0
 35 39  1  0  0  0
 35 44  1  0  0  0
 36 37  1  0  0  0
 36 45  1  0  0  0
 37 38  1  0  0  0
 37 41  1  0  0  0
 38 40  1  0  0  0
 38 32  1  0  0  0
 39 40  1  0  0  0
  1  3  1  0  0  0
  2  3  2  0  0  0
  2 10  1  0  0  0
  2 32  1  0  0  0
  3  4  1  0  0  0
  4  8  2  0  0  0
  4 12  1  0  0  0
  5  6  1  0  0  0
  5 12  1  0  0  0
  5 13  2  0  0  0
  6  7  2  0  0  0
  6 16  1  0  0  0
  7  8  1  0  0  0
  7 11  1  0  0  0
  8  9  1  0  0  0
  9 10  2  0  0  0
 15 19  1  0  0  0
 15 16  1  0  0  0
 15 17  2  0  0  0
 19 20  2  0  0  0
 19 24  1  0  0  0
 20 21  1  0  0  0
 21 22  2  0  0  0
 21 27  1  0  0  0
 22 23  1  0  0  0
 22 25  1  0  0  0
 23 24  2  0  0  0
 27 28  1  0  0  0
 28 29  2  0  0  0
 29 30  1  0  0  0
 29 31  1  0  0  0
 45 46  1  0  0  0
 48 49  1  0  0  0
 48 52  2  0  0  0
 49 50  2  0  0  0
 50 51  1  0  0  0
 50 46  1  0  0  0
 51 52  1  0  0  0
 52 53  1  0  0  0
 46 47  2  0  0  0
 16 18  1  0  0  0
 11 14  1  0  0  0
 25 26  1  0  0  0
 51 54  1  0  0  0
 41 42  1  0  0  0
M  END
> <minimizedAffinity>
-8.55527

$$$$
1KZN_CBN_A_1


 54 58  0  0  0  0  0  0  0  0999 V2000
   19.4969   32.0536   37.0064 Cl  0  0  0  0  0  0  0  0  0  0  0  0
   19.9920   30.7299   34.5835 C   0  0  0  0  0  0  0  0  0  0  0  0
   19.6208   31.9483   35.2703 C   0  0  0  0  0  0  0  0  0  0  0  0
   19.3731   33.1301   34.4902 C   0  0  0  0  0  0  0  0  0  0  0  0
   19.0912   35.6222   34.4192 C   0  0  0  0  0  0  0  0  0  0  0  0
   19.1378   35.5992   32.9291 C   0  0  0  0  0  0  0  0  0  0  0  0
   19.3351   34.4023   32.2790 C   0  0  0  0  0  0  0  0  0  0  0  0
   19.4876   33.1131   33.0271 C   0  0  0  0  0  0  0  0  0  0  0  0
   19.8377   31.8741   32.3468 C   0  0  0  0  0  0  0  0  0  0  0  0
   20.0917   30.6935   33.1060 C   0  0  0  0  0  0  0  0  0  0  0  0
   19.4206   34.3406   30.9236 O   0  0  0  0  0  0  0  0  0  0  0  0
   19.1359   34.3882   35.1292 O   0  0  0  0  0  0  0  0  0  0  0  0
   18.8174   36.6123   35.0268 O   0  0  0  0  0  0  0  0  0  0  0  0
   19.3316   35.1209   30.4126 H   0  0  0  0  0  0  0  0  0  0  0  0
   17.5579   37.2843   32.0015 C   0  0  0  0  0  0  0  0  0  0  0  0
   18.7938   36.8241   32.2006 N   0  0  0  0  0  0  0  0  0  0  0  0
   17.4137   38.4440   31.9951 O   0  0  0  0  0  0  0  0  0  0  0  0
   19.5371   37.3509   31.8273 H   0  0  0  0  0  0  0  0  0  0  0  0
   16.4008   36.4274   31.6853 C   0  0  0  0  0  0  0  0  0  0  0  0
   16.3152   35.7370   30.3908 C   0  0  0  0  0  0  0  0  0  0  0  0
   15.1017   35.0597   30.0183 C   0  0  0  0  0  0  0  0  0  0  0  0
   13.9787   35.0867   30.9458 C   0  0  0  0  0  0  0  0  0  0  0  0
   14.0617   35.7433   32.2414 C   0  0  0  0  0  0  0  0  0  0  0  0
   15.2784   36.3974   32.6204 C   0  0  0  0  0  0  0  0  0  0  0  0
   12.8204   34.4246   30.6273 O   0  0  0  0  0  0  0  0  0  0  0  0
   12.7400   33.9930   29.7995 H   0  0  0  0  0  0  0  0  0  0  0  0
   15.0145   34.3190   28.7034 C   0  0  0  0  0  0  0  0  0  0  0  0
   15.3087   32.7946   28.8106 C   0  0  0  0  0  0  0  0  0  0  0  0
   14.5235   31.7355   28.5470 C   0  0  0  0  0  0  0  0  0  0  0  0
   15.0785   30.3843   28.6957 C   0  0  0  0  0  0  0  0  0  0  0  0
   13.1797   31.9371   28.0216 C   0  0  0  0  0  0  0  0  0  0  0  0
   20.2582   29.6324   35.3979 O   0  0  0  0  0  0  0  0  0  0  0  0
   19.2537   26.9128   34.2855 C   0  0  0  0  0  0  0  0  0  0  0  0
   21.2050   25.7108   33.5718 C   0  0  0  0  0  0  0  0  0  0  0  0
   21.0342   26.2058   36.0982 C   0  0  0  0  0  0  0  0  0  0  0  0
   20.7706   27.3302   37.1272 C   0  0  0  0  0  0  0  0  0  0  0  0
   21.7264   28.5096   36.8707 C   0  0  0  0  0  0  0  0  0  0  0  0
   21.5021   28.9571   35.3954 C   0  0  0  0  0  0  0  0  0  0  0  0
   20.7355   26.6987   34.6360 C   0  0  0  0  0  0  0  0  0  0  0  0
   21.4648   27.9034   34.4311 O   0  0  0  0  0  0  0  0  0  0  0  0
   23.0524   28.0549   37.1631 O   0  0  0  0  0  0  0  0  0  0  0  0
   23.2540   27.2759   36.6215 H   0  0  0  0  0  0  0  0  0  0  0  0
   18.8154   25.2347   36.3312 C   0  0  0  0  0  0  0  0  0  0  0  0
   20.2239   25.1056   36.4916 O   0  0  0  0  0  0  0  0  0  0  0  0
   20.9459   26.8365   38.4577 O   0  0  0  0  0  0  0  0  0  0  0  0
   19.9774   27.0680   39.4089 C   0  0  0  0  0  0  0  0  0  0  0  0
   19.3703   28.1187   39.4761 O   0  0  0  0  0  0  0  0  0  0  0  0
   19.1646   23.9525   41.1488 C   0  0  0  0  0  0  0  0  0  0  0  0
   19.0097   24.7300   40.0882 C   0  0  0  0  0  0  0  0  0  0  0  0
   19.7378   25.9651   40.3135 C   0  0  0  0  0  0  0  0  0  0  0  0
   20.3834   25.9131   41.6235 N   0  0  0  0  0  0  0  0  0  0  0  0
   19.9360   24.6311   42.1768 C   0  0  0  0  0  0  0  0  0  0  0  0
   20.1038   24.4618   43.6236 C   0  0  0  0  0  0  0  0  0  0  0  0
   20.9778   26.5804   42.0365 H   0  0  0  0  0  0  0  0  0  0  0  0
 43 44  1  0  0  0
 33 39  1  0  0  0
 34 39  1  0  0  0
 35 36  1  0  0  0
 35 39  1  0  0  0
 35 44  1  0  0  0
 36 37  1  0  0  0
 36 45  1  0  0  0
 37 38  1  0  0  0
 37 41  1  0  0  0
 38 40  1  0  0  0
 38 32  1  0  0  0
 39 40  1  0  0  0
  1  3  1  0  0  0
  2  3  2  0  0  0
  2 10  1  0  0  0
  2 32  1  0  0  0
  3  4  1  0  0  0
  4  8  2  0  0  0
  4 12  1  0  0  0
  5  6  1  0  0  0
  5 12  1  0  0  0
  5 13  2  0  0  0
  6  7  2  0  0  0
  6 16  1  0  0  0
  7  8  1  0  0  0
  7 11  1  0  0  0
  8  9  1  0  0  0
  9 10  2  0  0  0
 15 19  1  0  0  0
 15 16  1  0  0  0
 15 17  2  0  0  0
 19 20  2  0  0  0
 19 24  1  0  0  0
 20 21  1  0  0  0
 21 22  2  0  0  0
 21 27  1  0  0  0
 22 23  1  0  0  0
 22 25  1  0  0  0
 23 24  2  0  0  0
 27 28  1  0  0  0
 28 29  2  0  0  0
 29 30  1  0  0  0
 29 31  1  0  0  0
 45 46  1  0  0  0
 48 49  1  0  0  0
 48 52  2  0  0  0
 49 50  2  0  0  0
 50 51  1  0  0  0
 50 46  1  0  0  0
 51 52  1  0  0  0
 52 53  1  0  0  0
 46 47  2  0  0  0
 16 18  1  0  0  0
 11 14  1  0  0  0
 25 26  1  0  0  0
 51 54  1  0  0  0
 41 42  1  0  0  0
M  END
> <minimizedAffinity>
-8.49104

$$$$
1KZN_CBN_A_1


 54 58  0  0  0  0  0  0  0  0999 V2000
   19.3364   29.3617   32.2612 Cl  0  0  0  0  0  0  0  0  0  0  0  0
   19.7136   30.7324   34.6792 C   0  0  0  0  0  0  0  0  0  0  0  0
   19.3923   30.7834   33.2692 C   0  0  0  0  0  0  0  0  0  0  0  0
   19.0760   32.0564   32.6809 C   0  0  0  0  0  0  0  0  0  0  0  0
   18.0991   33.3364   30.7569 C   0  0  0  0  0  0  0  0  0  0  0  0
   18.1657   34.6002   31.5454 C   0  0  0  0  0  0  0  0  0  0  0  0
   18.6252   34.5624   32.8422 C   0  0  0  0  0  0  0  0  0  0  0  0
   19.0790   33.2859   33.4823 C   0  0  0  0  0  0  0  0  0  0  0  0
   19.4283   33.2240   34.8946 C   0  0  0  0  0  0  0  0  0  0  0  0
   19.7399   31.9683   35.4954 C   0  0  0  0  0  0  0  0  0  0  0  0
   18.6683   35.6842   33.6090 O   0  0  0  0  0  0  0  0  0  0  0  0
   18.6219   32.1403   31.3267 O   0  0  0  0  0  0  0  0  0  0  0  0
   17.8107   33.3297   29.5988 O   0  0  0  0  0  0  0  0  0  0  0  0
   18.3946   36.5063   33.2524 H   0  0  0  0  0  0  0  0  0  0  0  0
   16.8046   36.6061   30.9802 C   0  0  0  0  0  0  0  0  0  0  0  0
   17.9085   35.8681   30.8557 N   0  0  0  0  0  0  0  0  0  0  0  0
   16.9289   37.7670   30.9297 O   0  0  0  0  0  0  0  0  0  0  0  0
   18.6090   36.2026   30.2503 H   0  0  0  0  0  0  0  0  0  0  0  0
   15.4440   36.0450   31.0670 C   0  0  0  0  0  0  0  0  0  0  0  0
   14.6546   36.1892   32.2981 C   0  0  0  0  0  0  0  0  0  0  0  0
   13.4108   35.4798   32.4394 C   0  0  0  0  0  0  0  0  0  0  0  0
   12.9716   34.6237   31.3457 C   0  0  0  0  0  0  0  0  0  0  0  0
   13.7312   34.4954   30.1115 C   0  0  0  0  0  0  0  0  0  0  0  0
   14.9576   35.2203   29.9632 C   0  0  0  0  0  0  0  0  0  0  0  0
   11.7757   33.9591   31.4433 O   0  0  0  0  0  0  0  0  0  0  0  0
   11.2660   34.0243   32.2269 H   0  0  0  0  0  0  0  0  0  0  0  0
   12.5753   35.6467   33.6881 C   0  0  0  0  0  0  0  0  0  0  0  0
   12.2340   37.1253   34.0330 C   0  0  0  0  0  0  0  0  0  0  0  0
   11.4871   37.6377   35.0266 C   0  0  0  0  0  0  0  0  0  0  0  0
   11.3648   39.0961   35.1448 C   0  0  0  0  0  0  0  0  0  0  0  0
   10.8999   36.7557   36.0264 C   0  0  0  0  0  0  0  0  0  0  0  0
   19.9701   29.4654   35.1967 O   0  0  0  0  0  0  0  0  0  0  0  0
   19.1914   26.5702   34.3879 C   0  0  0  0  0  0  0  0  0  0  0  0
   21.2312   25.4695   33.7640 C   0  0  0  0  0  0  0  0  0  0  0  0
   21.0446   26.2075   36.2291 C   0  0  0  0  0  0  0  0  0  0  0  0
   20.6960   27.4063   37.1425 C   0  0  0  0  0  0  0  0  0  0  0  0
   21.5443   28.6291   36.7483 C   0  0  0  0  0  0  0  0  0  0  0  0
   21.2673   28.9008   35.2395 C   0  0  0  0  0  0  0  0  0  0  0  0
   20.6897   26.5193   34.7301 C   0  0  0  0  0  0  0  0  0  0  0  0
   21.3107   27.7535   34.3891 O   0  0  0  0  0  0  0  0  0  0  0  0
   22.9075   28.3207   37.0604 O   0  0  0  0  0  0  0  0  0  0  0  0
   23.1695   27.5095   36.5976 H   0  0  0  0  0  0  0  0  0  0  0  0
   18.9241   25.0637   36.5686 C   0  0  0  0  0  0  0  0  0  0  0  0
   20.3358   25.0896   36.7485 O   0  0  0  0  0  0  0  0  0  0  0  0
   20.9268   27.0697   38.5129 O   0  0  0  0  0  0  0  0  0  0  0  0
   19.9226   27.2395   39.4399 C   0  0  0  0  0  0  0  0  0  0  0  0
   19.2544   28.2531   39.4960 O   0  0  0  0  0  0  0  0  0  0  0  0
   19.2201   24.0804   41.1489 C   0  0  0  0  0  0  0  0  0  0  0  0
   19.0334   24.8647   40.0985 C   0  0  0  0  0  0  0  0  0  0  0  0
   19.7242   26.1194   40.3332 C   0  0  0  0  0  0  0  0  0  0  0  0
   20.3805   26.0726   41.6380 N   0  0  0  0  0  0  0  0  0  0  0  0
   19.9773   24.7711   42.1794 C   0  0  0  0  0  0  0  0  0  0  0  0
   20.1607   24.5906   43.6230 C   0  0  0  0  0  0  0  0  0  0  0  0
   20.9566   26.7536   42.0547 H   0  0  0  0  0  0  0  0  0  0  0  0
 43 44  1  0  0  0
 33 39  1  0  0  0
 34 39  1  0  0  0
 35 36  1  0  0  0
 35 39  1  0  0  0
 35 44  1  0  0  0
 36 37  1  0  0  0
 36 45  1  0  0  0
 37 38  1  0  0  0
 37 41  1  0  0  0
 38 40  1  0  0  0
 38 32  1  0  0  0
 39 40  1  0  0  0
  1  3  1  0  0  0
  2  3  2  0  0  0
  2 10  1  0  0  0
  2 32  1  0  0  0
  3  4  1  0  0  0
  4  8  2  0  0  0
  4 12  1  0  0  0
  5  6  1  0  0  0
  5 12  1  0  0  0
  5 13  2  0  0  0
  6  7  2  0  0  0
  6 16  1  0  0  0
  7  8  1  0  0  0
  7 11  1  0  0  0
  8  9  1  0  0  0
  9 10  2  0  0  0
 15 19  1  0  0  0
 15 16  1  0  0  0
 15 17  2  0  0  0
 19 20  2  0  0  0
 19 24  1  0  0  0
 20 21  1  0  0  0
 21 22  2  0  0  0
 21 27  1  0  0  0
 22 23  1  0  0  0
 22 25  1  0  0  0
 23 24  2  0  0  0
 27 28  1  0  0  0
 28 29  2  0  0  0
 29 30  1  0  0  0
 29 31  1  0  0  0
 45 46  1  0  0  0
 48 49  1  0  0  0
 48 52  2  0  0  0
 49 50  2  0  0  0
 50 51  1  0  0  0
 50 46  1  0  0  0
 51 52  1  0  0  0
 52 53  1  0  0  0
 46 47  2  0  0  0
 16 18  1  0  0  0
 11 14  1  0  0  0
 25 26  1  0  0  0
 51 54  1  0  0  0
 41 42  1  0  0  0
M  END
> <minimizedAffinity>
-8.26818

$$$$
1KZN_CBN_A_1


 54 58  0  0  0  0  0  0  0  0999 V2000
   19.2985   32.2508   37.1212 Cl  0  0  0  0  0  0  0  0  0  0  0  0
   20.3844   31.0114   34.8512 C   0  0  0  0  0  0  0  0  0  0  0  0
   19.7758   32.1821   35.4454 C   0  0  0  0  0  0  0  0  0  0  0  0
   19.5841   33.3485   34.6274 C   0  0  0  0  0  0  0  0  0  0  0  0
   19.1000   35.8066   34.4926 C   0  0  0  0  0  0  0  0  0  0  0  0
   19.4454   35.8096   33.0421 C   0  0  0  0  0  0  0  0  0  0  0  0
   19.8750   34.6443   32.4489 C   0  0  0  0  0  0  0  0  0  0  0  0
   19.9898   33.3629   33.2170 C   0  0  0  0  0  0  0  0  0  0  0  0
   20.5784   32.1698   32.6249 C   0  0  0  0  0  0  0  0  0  0  0  0
   20.7803   31.0054   33.4238 C   0  0  0  0  0  0  0  0  0  0  0  0
   20.2349   34.6101   31.1384 O   0  0  0  0  0  0  0  0  0  0  0  0
   19.1123   34.5712   35.2014 O   0  0  0  0  0  0  0  0  0  0  0  0
   18.6227   36.7598   35.0295 O   0  0  0  0  0  0  0  0  0  0  0  0
   20.1802   35.3868   30.6171 H   0  0  0  0  0  0  0  0  0  0  0  0
   20.0472   37.8793   31.7971 C   0  0  0  0  0  0  0  0  0  0  0  0
   19.1456   37.0097   32.2552 N   0  0  0  0  0  0  0  0  0  0  0  0
   19.8333   38.3752   30.7607 O   0  0  0  0  0  0  0  0  0  0  0  0
   18.2000   37.1886   32.0476 H   0  0  0  0  0  0  0  0  0  0  0  0
   21.2253   38.3249   32.5631 C   0  0  0  0  0  0  0  0  0  0  0  0
   22.5691   37.8450   32.2115 C   0  0  0  0  0  0  0  0  0  0  0  0
   23.6823   38.1335   33.0761 C   0  0  0  0  0  0  0  0  0  0  0  0
   23.4372   38.8959   34.2929 C   0  0  0  0  0  0  0  0  0  0  0  0
   22.1162   39.3995   34.6367 C   0  0  0  0  0  0  0  0  0  0  0  0
   21.0132   39.1312   33.7631 C   0  0  0  0  0  0  0  0  0  0  0  0
   24.4860   39.2090   35.1196 O   0  0  0  0  0  0  0  0  0  0  0  0
   25.3474   38.8978   34.9219 H   0  0  0  0  0  0  0  0  0  0  0  0
   25.0740   37.6728   32.7070 C   0  0  0  0  0  0  0  0  0  0  0  0
   25.8292   38.6350   31.7451 C   0  0  0  0  0  0  0  0  0  0  0  0
   26.1496   38.4942   30.4469 C   0  0  0  0  0  0  0  0  0  0  0  0
   26.8383   39.5948   29.7611 C   0  0  0  0  0  0  0  0  0  0  0  0
   25.7224   37.3092   29.7150 C   0  0  0  0  0  0  0  0  0  0  0  0
   20.5798   29.9301   35.7063 O   0  0  0  0  0  0  0  0  0  0  0  0
   18.3854   27.9361   34.7833 C   0  0  0  0  0  0  0  0  0  0  0  0
   19.5180   26.1856   33.5940 C   0  0  0  0  0  0  0  0  0  0  0  0
   20.0797   26.4048   36.1026 C   0  0  0  0  0  0  0  0  0  0  0  0
   20.4954   27.4155   37.1973 C   0  0  0  0  0  0  0  0  0  0  0  0
   21.7611   28.1735   36.7570 C   0  0  0  0  0  0  0  0  0  0  0  0
   21.4307   28.8441   35.3902 C   0  0  0  0  0  0  0  0  0  0  0  0
   19.7030   27.1435   34.7675 C   0  0  0  0  0  0  0  0  0  0  0  0
   20.7861   28.0033   34.4316 O   0  0  0  0  0  0  0  0  0  0  0  0
   22.8329   27.2247   36.7145 O   0  0  0  0  0  0  0  0  0  0  0  0
   22.5971   26.4971   36.1180 H   0  0  0  0  0  0  0  0  0  0  0  0
   18.9668   24.2558   36.3547 C   0  0  0  0  0  0  0  0  0  0  0  0
   19.0037   25.6491   36.6439 O   0  0  0  0  0  0  0  0  0  0  0  0
   20.7340   26.7379   38.4337 O   0  0  0  0  0  0  0  0  0  0  0  0
   19.9301   26.9928   39.5224 C   0  0  0  0  0  0  0  0  0  0  0  0
   19.3711   28.0600   39.6819 O   0  0  0  0  0  0  0  0  0  0  0  0
   19.4435   23.8506   41.3346 C   0  0  0  0  0  0  0  0  0  0  0  0
   19.2206   24.5783   40.2510 C   0  0  0  0  0  0  0  0  0  0  0  0
   19.8006   25.8933   40.4531 C   0  0  0  0  0  0  0  0  0  0  0  0
   20.4248   25.9481   41.7734 N   0  0  0  0  0  0  0  0  0  0  0  0
   20.1152   24.6382   42.3549 C   0  0  0  0  0  0  0  0  0  0  0  0
   20.2755   24.5259   43.8080 C   0  0  0  0  0  0  0  0  0  0  0  0
   20.9327   26.6888   42.1766 H   0  0  0  0  0  0  0  0  0  0  0  0
 43 44  1  0  0  0
 33 39  1  0  0  0
 34 39  1  0  0  0
 35 36  1  0  0  0
 35 39  1  0  0  0
 35 44  1  0  0  0
 36 37  1  0  0  0
 36 45  1  0  0  0
 37 38  1  0  0  0
 37 41  1  0  0  0
 38 40  1  0  0  0
 38 32  1  0  0  0
 39 40  1  0  0  0
  1  3  1  0  0  0
  2  3  2  0  0  0
  2 10  1  0  0  0
  2 32  1  0  0  0
  3  4  1  0  0  0
  4  8  2  0  0  0
  4 12  1  0  0  0
  5  6  1  0  0  0
  5 12  1  0  0  0
  5 13  2  0  0  0
  6  7  2  0  0  0
  6 16  1  0  0  0
  7  8  1  0  0  0
  7 11  1  0  0  0
  8  9  1  0  0  0
  9 10  2  0  0  0
 15 19  1  0  0  0
 15 16  1  0  0  0
 15 17  2  0  0  0
 19 20  2  0  0  0
 19 24  1  0  0  0
 20 21  1  0  0  0
 21 22  2  0  0  0
 21 27  1  0  0  0
 22 23  1  0  0  0
 22 25  1  0  0  0
 23 24  2  0  0  0
 27 28  1  0  0  0
 28 29  2  0  0  0
 29 30  1  0  0  0
 29 31  1  0  0  0
 45 46  1  0  0  0
 48 49  1  0  0  0
 48 52  2  0  0  0
 49 50  2  0  0  0
 50 51  1  0  0  0
 50 46  1  0  0  0
 51 52  1  0  0  0
 52 53  1  0  0  0
 46 47  2  0  0  0
 16 18  1  0  0  0
 11 14  1  0  0  0
 25 26  1  0  0  0
 51 54  1  0  0  0
 41 42  1  0  0  0
M  END
> <minimizedAffinity>
-8.17460

$$$$
1KZN_CBN_A_1


 54 58  0  0  0  0  0  0  0  0999 V2000
   16.0882   29.0601   31.6487 Cl  0  0  0  0  0  0  0  0  0  0  0  0
   17.8887   31.1453   31.1211 C   0  0  0  0  0  0  0  0  0  0  0  0
   17.6381   29.8553   31.7270 C   0  0  0  0  0  0  0  0  0  0  0  0
   18.7210   29.1870   32.3958 C   0  0  0  0  0  0  0  0  0  0  0  0
   19.6458   27.0692   33.3728 C   0  0  0  0  0  0  0  0  0  0  0  0
   20.9873   27.7042   33.5158 C   0  0  0  0  0  0  0  0  0  0  0  0
   21.1723   28.9954   33.0766 C   0  0  0  0  0  0  0  0  0  0  0  0
   20.0561   29.7916   32.4722 C   0  0  0  0  0  0  0  0  0  0  0  0
   20.2883   31.1014   31.8799 C   0  0  0  0  0  0  0  0  0  0  0  0
   19.2261   31.7761   31.2081 C   0  0  0  0  0  0  0  0  0  0  0  0
   22.3874   29.6003   33.1541 O   0  0  0  0  0  0  0  0  0  0  0  0
   18.5594   27.8546   32.8915 O   0  0  0  0  0  0  0  0  0  0  0  0
   19.4043   25.9945   33.8323 O   0  0  0  0  0  0  0  0  0  0  0  0
   23.1160   29.1422   33.5243 H   0  0  0  0  0  0  0  0  0  0  0  0
   21.9023   26.5985   35.5495 C   0  0  0  0  0  0  0  0  0  0  0  0
   22.0174   26.9958   34.2815 N   0  0  0  0  0  0  0  0  0  0  0  0
   22.4245   25.5957   35.8451 O   0  0  0  0  0  0  0  0  0  0  0  0
   22.8647   26.7967   33.8214 H   0  0  0  0  0  0  0  0  0  0  0  0
   21.2556   27.3962   36.6073 C   0  0  0  0  0  0  0  0  0  0  0  0
   20.8878   26.7779   37.8887 C   0  0  0  0  0  0  0  0  0  0  0  0
   20.0917   27.5115   38.8363 C   0  0  0  0  0  0  0  0  0  0  0  0
   19.6633   28.8594   38.4873 C   0  0  0  0  0  0  0  0  0  0  0  0
   20.0448   29.4914   37.2336 C   0  0  0  0  0  0  0  0  0  0  0  0
   20.8568   28.7682   36.3012 C   0  0  0  0  0  0  0  0  0  0  0  0
   18.9278   29.5907   39.3849 O   0  0  0  0  0  0  0  0  0  0  0  0
   18.6687   29.2083   40.2000 H   0  0  0  0  0  0  0  0  0  0  0  0
   19.7355   26.8970   40.1708 C   0  0  0  0  0  0  0  0  0  0  0  0
   19.2559   25.4191   40.0835 C   0  0  0  0  0  0  0  0  0  0  0  0
   19.6113   24.3439   40.8083 C   0  0  0  0  0  0  0  0  0  0  0  0
   18.9590   23.0567   40.5376 C   0  0  0  0  0  0  0  0  0  0  0  0
   20.5516   24.4871   41.9118 C   0  0  0  0  0  0  0  0  0  0  0  0
   16.8106   31.7209   30.4539 O   0  0  0  0  0  0  0  0  0  0  0  0
   14.0018   33.0359   30.2990 C   0  0  0  0  0  0  0  0  0  0  0  0
   14.0281   34.4641   28.3700 C   0  0  0  0  0  0  0  0  0  0  0  0
   14.2887   31.9373   27.9186 C   0  0  0  0  0  0  0  0  0  0  0  0
   15.0767   30.6757   28.3434 C   0  0  0  0  0  0  0  0  0  0  0  0
   16.5892   30.9414   28.2339 C   0  0  0  0  0  0  0  0  0  0  0  0
   16.8921   32.1865   29.1198 C   0  0  0  0  0  0  0  0  0  0  0  0
   14.5907   33.1414   28.8825 C   0  0  0  0  0  0  0  0  0  0  0  0
   16.0040   33.2930   28.9513 O   0  0  0  0  0  0  0  0  0  0  0  0
   16.8933   31.1072   26.8444 O   0  0  0  0  0  0  0  0  0  0  0  0
   16.3526   31.8246   26.4784 H   0  0  0  0  0  0  0  0  0  0  0  0
   12.1857   31.7908   26.7037 C   0  0  0  0  0  0  0  0  0  0  0  0
   12.9163   31.5657   27.9044 O   0  0  0  0  0  0  0  0  0  0  0  0
   14.7127   29.5633   27.5220 O   0  0  0  0  0  0  0  0  0  0  0  0
   14.9643   28.2800   27.9537 C   0  0  0  0  0  0  0  0  0  0  0  0
   14.5115   27.8435   28.9936 O   0  0  0  0  0  0  0  0  0  0  0  0
   16.5083   26.0021   25.5410 C   0  0  0  0  0  0  0  0  0  0  0  0
   15.4779   26.2990   26.3179 C   0  0  0  0  0  0  0  0  0  0  0  0
   15.8015   27.4955   27.0730 C   0  0  0  0  0  0  0  0  0  0  0  0
   17.1422   27.9487   26.7086 N   0  0  0  0  0  0  0  0  0  0  0  0
   17.6089   26.9232   25.7705 C   0  0  0  0  0  0  0  0  0  0  0  0
   19.0534   26.8898   25.5211 C   0  0  0  0  0  0  0  0  0  0  0  0
   17.6189   28.7521   27.0194 H   0  0  0  0  0  0  0  0  0  0  0  0
 43 44  1  0  0  0
 33 39  1  0  0  0
 34 39  1  0  0  0
 35 36  1  0  0  0
 35 39  1  0  0  0
 35 44  1  0  0  0
 36 37  1  0  0  0
 36 45  1  0  0  0
 37 38  1  0  0  0
 37 41  1  0  0  0
 38 40  1  0  0  0
 38 32  1  0  0  0
 39 40  1  0  0  0
  1  3  1  0  0  0
  2  3  2  0  0  0
  2 10  1  0  0  0
  2 32  1  0  0  0
  3  4  1  0  0  0
  4  8  2  0  0  0
  4 12  1  0  0  0
  5  6  1  0  0  0
  5 12  1  0  0  0
  5 13  2  0  0  0
  6  7  2  0  0  0
  6 16  1  0  0  0
  7  8  1  0  0  0
  7 11  1  0  0  0
  8  9  1  0  0  0
  9 10  2  0  0  0
 15 19  1  0  0  0
 15 16  1  0  0  0
 15 17  2  0  0  0
 19 20  2  0  0  0
 19 24  1  0  0  0
 20 21  1  0  0  0
 21 22  2  0  0  0
 21 27  1  0  0  0
 22 23  1  0  0  0
 22 25  1  0  0  0
 23 24  2  0  0  0
 27 28  1  0  0  0
 28 29  2  0  0  0
 29 30  1  0  0  0
 29 31  1  0  0  0
 45 46  1  0  0  0
 48 49  1  0  0  0
 48 52  2  0  0  0
 49 50  2  0  0  0
 50 51  1  0  0  0
 50 46  1  0  0  0
 51 52  1  0  0  0
 52 53  1  0  0  0
 46 47  2  0  0  0
 16 18  1  0  0  0
 11 14  1  0  0  0
 25 26  1  0  0  0
 51 54  1  0  0  0
 41 42  1  0  0  0
M  END
> <minimizedAffinity>
-8.06375

$$$$
1KZN_CBN_A_1


 54 58  0  0  0  0  0  0  0  0999 V2000
   19.4032   31.6209   36.4060 Cl  0  0  0  0  0  0  0  0  0  0  0  0
   20.6951   31.0732   33.9771 C   0  0  0  0  0  0  0  0  0  0  0  0
   19.9315   31.9975   34.7874 C   0  0  0  0  0  0  0  0  0  0  0  0
   19.6211   33.2928   34.2466 C   0  0  0  0  0  0  0  0  0  0  0  0
   18.8436   35.6443   34.6477 C   0  0  0  0  0  0  0  0  0  0  0  0
   19.2259   36.0230   33.2571 C   0  0  0  0  0  0  0  0  0  0  0  0
   19.8112   35.0835   32.4392 C   0  0  0  0  0  0  0  0  0  0  0  0
   20.0608   33.6801   32.9010 C   0  0  0  0  0  0  0  0  0  0  0  0
   20.8072   32.7313   32.0866 C   0  0  0  0  0  0  0  0  0  0  0  0
   21.1279   31.4436   32.6098 C   0  0  0  0  0  0  0  0  0  0  0  0
   20.2087   35.3954   31.1771 O   0  0  0  0  0  0  0  0  0  0  0  0
   18.9875   34.2875   35.0567 O   0  0  0  0  0  0  0  0  0  0  0  0
   18.2385   36.3866   35.3600 O   0  0  0  0  0  0  0  0  0  0  0  0
   20.0738   36.2607   30.8438 H   0  0  0  0  0  0  0  0  0  0  0  0
   19.6198   38.2950   32.3198 C   0  0  0  0  0  0  0  0  0  0  0  0
   18.8033   37.3314   32.7483 N   0  0  0  0  0  0  0  0  0  0  0  0
   19.2466   38.9562   31.4313 O   0  0  0  0  0  0  0  0  0  0  0  0
   17.8363   37.5139   32.7206 H   0  0  0  0  0  0  0  0  0  0  0  0
   20.9000   38.6377   32.9656 C   0  0  0  0  0  0  0  0  0  0  0  0
   22.1649   38.0978   32.4479 C   0  0  0  0  0  0  0  0  0  0  0  0
   23.3818   38.2831   33.1928 C   0  0  0  0  0  0  0  0  0  0  0  0
   23.3189   39.0033   34.4575 C   0  0  0  0  0  0  0  0  0  0  0  0
   22.0773   39.5659   34.9658 C   0  0  0  0  0  0  0  0  0  0  0  0
   20.8708   39.4005   34.2115 C   0  0  0  0  0  0  0  0  0  0  0  0
   24.4693   39.2185   35.1730 O   0  0  0  0  0  0  0  0  0  0  0  0
   25.2829   38.8675   34.8685 H   0  0  0  0  0  0  0  0  0  0  0  0
   24.6935   37.7602   32.6532 C   0  0  0  0  0  0  0  0  0  0  0  0
   25.1108   36.3748   33.2261 C   0  0  0  0  0  0  0  0  0  0  0  0
   24.7489   35.1342   32.8553 C   0  0  0  0  0  0  0  0  0  0  0  0
   25.3373   33.9836   33.5524 C   0  0  0  0  0  0  0  0  0  0  0  0
   23.8685   34.9432   31.7105 C   0  0  0  0  0  0  0  0  0  0  0  0
   20.9976   29.8519   34.5735 O   0  0  0  0  0  0  0  0  0  0  0  0
   22.1330   27.9886   32.3640 C   0  0  0  0  0  0  0  0  0  0  0  0
   24.4935   27.8215   32.7662 C   0  0  0  0  0  0  0  0  0  0  0  0
   22.9559   26.8521   34.5972 C   0  0  0  0  0  0  0  0  0  0  0  0
   21.7262   27.1688   35.4806 C   0  0  0  0  0  0  0  0  0  0  0  0
   21.9560   28.4847   36.2460 C   0  0  0  0  0  0  0  0  0  0  0  0
   22.2483   29.5806   35.1780 C   0  0  0  0  0  0  0  0  0  0  0  0
   23.1649   27.9616   33.5037 C   0  0  0  0  0  0  0  0  0  0  0  0
   23.1921   29.2199   34.1678 O   0  0  0  0  0  0  0  0  0  0  0  0
   23.0207   28.2565   37.1761 O   0  0  0  0  0  0  0  0  0  0  0  0
   23.8075   27.9507   36.6982 H   0  0  0  0  0  0  0  0  0  0  0  0
   23.7937   24.6182   34.1196 C   0  0  0  0  0  0  0  0  0  0  0  0
   22.7301   25.5614   34.0452 O   0  0  0  0  0  0  0  0  0  0  0  0
   21.4880   26.1006   36.4008 O   0  0  0  0  0  0  0  0  0  0  0  0
   20.2128   25.8659   36.8649 C   0  0  0  0  0  0  0  0  0  0  0  0
   19.2499   25.8203   36.1247 O   0  0  0  0  0  0  0  0  0  0  0  0
   20.1757   26.0131   40.5215 C   0  0  0  0  0  0  0  0  0  0  0  0
   20.6215   26.5003   39.3738 C   0  0  0  0  0  0  0  0  0  0  0  0
   20.1120   25.6740   38.2949 C   0  0  0  0  0  0  0  0  0  0  0  0
   19.2890   24.6035   38.8538 N   0  0  0  0  0  0  0  0  0  0  0  0
   19.4066   24.7996   40.3020 C   0  0  0  0  0  0  0  0  0  0  0  0
   19.0069   23.6639   41.1390 C   0  0  0  0  0  0  0  0  0  0  0  0
   18.7770   23.9142   38.3721 H   0  0  0  0  0  0  0  0  0  0  0  0
 43 44  1  0  0  0
 33 39  1  0  0  0
 34 39  1  0  0  0
 35 36  1  0  0  0
 35 39  1  0  0  0
 35 44  1  0  0  0
 36 37  1  0  0  0
 36 45  1  0  0  0
 37 38  1  0  0  0
 37 41  1  0  0  0
 38 40  1  0  0  0
 38 32  1  0  0  0
 39 40  1  0  0  0
  1  3  1  0  0  0
  2  3  2  0  0  0
  2 10  1  0  0  0
  2 32  1  0  0  0
  3  4  1  0  0  0
  4  8  2  0  0  0
  4 12  1  0  0  0
  5  6  1  0  0  0
  5 12  1  0  0  0
  5 13  2  0  0  0
  6  7  2  0  0  0
  6 16  1  0  0  0
  7  8  1  0  0  0
  7 11  1  0  0  0
  8  9  1  0  0  0
  9 10  2  0  0  0
 15 19  1  0  0  0
 15 16  1  0  0  0
 15 17  2  0  0  0
 19 20  2  0  0  0
 19 24  1  0  0  0
 20 21  1  0  0  0
 21 22  2  0  0  0
 21 27  1  0  0  0
 22 23  1  0  0  0
 22 25  1  0  0  0
 23 24  2  0  0  0
 27 28  1  0  0  0
 28 29  2  0  0  0
 29 30  1  0  0  0
 29 31  1  0  0  0
 45 46  1  0  0  0
 48 49  1  0  0  0
 48 52  2  0  0  0
 49 50  2  0  0  0
 50 51  1  0  0  0
 50 46  1  0  0  0
 51 52  1  0  0  0
 52 53  1  0  0  0
 46 47  2  0  0  0
 16 18  1  0  0  0
 11 14  1  0  0  0
 25 26  1  0  0  0
 51 54  1  0  0  0
 41 42  1  0  0  0
M  END
> <minimizedAffinity>
-8.00329

$$$$
1KZN_CBN_A_1


 54 58  0  0  0  0  0  0  0  0999 V2000
   19.7547   29.8346   32.3097 Cl  0  0  0  0  0  0  0  0  0  0  0  0
   19.7472   30.7980   34.9441 C   0  0  0  0  0  0  0  0  0  0  0  0
   19.6231   31.0742   33.5290 C   0  0  0  0  0  0  0  0  0  0  0  0
   19.3495   32.4225   33.1123 C   0  0  0  0  0  0  0  0  0  0  0  0
   18.6072   33.9881   31.2977 C   0  0  0  0  0  0  0  0  0  0  0  0
   18.5219   35.1076   32.2789 C   0  0  0  0  0  0  0  0  0  0  0  0
   18.7980   34.8643   33.6051 C   0  0  0  0  0  0  0  0  0  0  0  0
   19.2006   33.5055   34.0916 C   0  0  0  0  0  0  0  0  0  0  0  0
   19.3525   33.2185   35.5111 C   0  0  0  0  0  0  0  0  0  0  0  0
   19.6191   31.8851   35.9421 C   0  0  0  0  0  0  0  0  0  0  0  0
   18.6972   35.8470   34.5392 O   0  0  0  0  0  0  0  0  0  0  0  0
   19.0851   32.7207   31.7381 O   0  0  0  0  0  0  0  0  0  0  0  0
   18.4826   34.1668   30.1243 O   0  0  0  0  0  0  0  0  0  0  0  0
   18.4485   36.7132   34.2829 H   0  0  0  0  0  0  0  0  0  0  0  0
   19.2283   37.1885   31.1098 C   0  0  0  0  0  0  0  0  0  0  0  0
   18.3211   36.4680   31.7707 N   0  0  0  0  0  0  0  0  0  0  0  0
   18.8368   37.9012   30.2704 O   0  0  0  0  0  0  0  0  0  0  0  0
   17.4434   36.8845   31.9306 H   0  0  0  0  0  0  0  0  0  0  0  0
   20.6630   37.2169   31.4477 C   0  0  0  0  0  0  0  0  0  0  0  0
   21.5323   36.0821   31.1070 C   0  0  0  0  0  0  0  0  0  0  0  0
   22.8812   36.0374   31.6057 C   0  0  0  0  0  0  0  0  0  0  0  0
   23.3459   37.1296   32.4502 C   0  0  0  0  0  0  0  0  0  0  0  0
   22.5030   38.2712   32.7709 C   0  0  0  0  0  0  0  0  0  0  0  0
   21.1681   38.3255   32.2546 C   0  0  0  0  0  0  0  0  0  0  0  0
   24.6364   37.1253   32.9149 O   0  0  0  0  0  0  0  0  0  0  0  0
   25.2011   36.4025   32.7231 H   0  0  0  0  0  0  0  0  0  0  0  0
   23.7939   34.8909   31.2344 C   0  0  0  0  0  0  0  0  0  0  0  0
   23.7013   33.6675   32.1916 C   0  0  0  0  0  0  0  0  0  0  0  0
   23.0553   32.4970   32.0488 C   0  0  0  0  0  0  0  0  0  0  0  0
   23.1738   31.4858   33.1068 C   0  0  0  0  0  0  0  0  0  0  0  0
   22.3392   32.2055   30.8141 C   0  0  0  0  0  0  0  0  0  0  0  0
   19.9712   29.4665   35.2841 O   0  0  0  0  0  0  0  0  0  0  0  0
   19.1653   26.6044   34.3887 C   0  0  0  0  0  0  0  0  0  0  0  0
   21.1956   25.5015   33.7381 C   0  0  0  0  0  0  0  0  0  0  0  0
   21.0092   26.1688   36.2234 C   0  0  0  0  0  0  0  0  0  0  0  0
   20.6703   27.3439   37.1706 C   0  0  0  0  0  0  0  0  0  0  0  0
   21.5322   28.5689   36.8147 C   0  0  0  0  0  0  0  0  0  0  0  0
   21.2624   28.8875   35.3138 C   0  0  0  0  0  0  0  0  0  0  0  0
   20.6619   26.5281   34.7333 C   0  0  0  0  0  0  0  0  0  0  0  0
   21.2965   27.7653   34.4302 O   0  0  0  0  0  0  0  0  0  0  0  0
   22.8912   28.2374   37.1212 O   0  0  0  0  0  0  0  0  0  0  0  0
   23.1463   27.4375   36.6355 H   0  0  0  0  0  0  0  0  0  0  0  0
   18.8730   25.0508   36.5498 C   0  0  0  0  0  0  0  0  0  0  0  0
   20.2876   25.0436   36.7079 O   0  0  0  0  0  0  0  0  0  0  0  0
   20.8936   26.9649   38.5312 O   0  0  0  0  0  0  0  0  0  0  0  0
   19.8914   27.1258   39.4619 C   0  0  0  0  0  0  0  0  0  0  0  0
   19.1986   28.1234   39.5051 O   0  0  0  0  0  0  0  0  0  0  0  0
   19.3316   23.9662   41.2219 C   0  0  0  0  0  0  0  0  0  0  0  0
   19.1479   24.7068   40.1397 C   0  0  0  0  0  0  0  0  0  0  0  0
   19.7264   26.0168   40.3755 C   0  0  0  0  0  0  0  0  0  0  0  0
   20.3066   26.0542   41.7162 N   0  0  0  0  0  0  0  0  0  0  0  0
   19.9724   24.7395   42.2726 C   0  0  0  0  0  0  0  0  0  0  0  0
   20.0838   24.6106   43.7289 C   0  0  0  0  0  0  0  0  0  0  0  0
   20.8040   26.7881   42.1443 H   0  0  0  0  0  0  0  0  0  0  0  0
 43 44  1  0  0  0
 33 39  1  0  0  0
 34 39  1  0  0  0
 35 36  1  0  0  0
 35 39  1  0  0  0
 35 44  1  0  0  0
 36 37  1  0  0  0
 36 45  1  0  0  0
 37 38  1  0  0  0
 37 41  1  0  0  0
 38 40  1  0  0  0
 38 32  1  0  0  0
 39 40  1  0  0  0
  1  3  1  0  0  0
  2  3  2  0  0  0
  2 10  1  0  0  0
  2 32  1  0  0  0
  3  4  1  0  0  0
  4  8  2  0  0  0
  4 12  1  0  0  0
  5  6  1  0  0  0
  5 12  1  0  0  0
  5 13  2  0  0  0
  6  7  2  0  0  0
  6 16  1  0  0  0
  7  8  1  0  0  0
  7 11  1  0  0  0
  8  9  1  0  0  0
  9 10  2  0  0  0
 15 19  1  0  0  0
 15 16  1  0  0  0
 15 17  2  0  0  0
 19 20  2  0  0  0
 19 24  1  0  0  0
 20 21  1  0  0  0
 21 22  2  0  0  0
 21 27  1  0  0  0
 22 23  1  0  0  0
 22 25  1  0  0  0
 23 24  2  0  0  0
 27 28  1  0  0  0
 28 29  2  0  0  0
 29 30  1  0  0  0
 29 31  1  0  0  0
 45 46  1  0  0  0
 48 49  1  0  0  0
 48 52  2  0  0  0
 49 50  2  0  0  0
 50 51  1  0  0  0
 50 46  1  0  0  0
 51 52  1  0  0  0
 52 53  1  0  0  0
 46 47  2  0  0  0
 16 18  1  0  0  0
 11 14  1  0  0  0
 25 26  1  0  0  0
 51 54  1  0  0  0
 41 42  1  0  0  0
M  END
> <minimizedAffinity>
-7.76175

$$$$
1KZN_CBN_A_1


 54 58  0  0  0  0  0  0  0  0999 V2000
   24.0200   24.6455   34.6254 Cl  0  0  0  0  0  0  0  0  0  0  0  0
   21.6285   24.5051   33.1663 C   0  0  0  0  0  0  0  0  0  0  0  0
   23.0095   24.0987   33.3137 C   0  0  0  0  0  0  0  0  0  0  0  0
   23.5631   23.1814   32.3554 C   0  0  0  0  0  0  0  0  0  0  0  0
   25.3982   21.5849   31.7399 C   0  0  0  0  0  0  0  0  0  0  0  0
   24.6085   21.1062   30.5693 C   0  0  0  0  0  0  0  0  0  0  0  0
   23.3508   21.6199   30.3488 C   0  0  0  0  0  0  0  0  0  0  0  0
   22.7560   22.6636   31.2443 C   0  0  0  0  0  0  0  0  0  0  0  0
   21.3750   23.0999   31.0933 C   0  0  0  0  0  0  0  0  0  0  0  0
   20.8083   24.0059   32.0382 C   0  0  0  0  0  0  0  0  0  0  0  0
   22.5819   21.1857   29.3151 O   0  0  0  0  0  0  0  0  0  0  0  0
   24.8781   22.6466   32.5344 O   0  0  0  0  0  0  0  0  0  0  0  0
   26.5309   21.2523   31.9155 O   0  0  0  0  0  0  0  0  0  0  0  0
   22.9110   20.5337   28.7281 H   0  0  0  0  0  0  0  0  0  0  0  0
   26.0479   20.6487   28.5907 C   0  0  0  0  0  0  0  0  0  0  0  0
   25.2678   20.2361   29.5907 N   0  0  0  0  0  0  0  0  0  0  0  0
   26.9498   19.9652   28.2990 O   0  0  0  0  0  0  0  0  0  0  0  0
   25.1227   19.2664   29.6792 H   0  0  0  0  0  0  0  0  0  0  0  0
   25.7761   21.8456   27.7739 C   0  0  0  0  0  0  0  0  0  0  0  0
   25.8283   23.1860   28.3739 C   0  0  0  0  0  0  0  0  0  0  0  0
   25.3793   24.3266   27.6206 C   0  0  0  0  0  0  0  0  0  0  0  0
   24.8732   24.1124   26.2715 C   0  0  0  0  0  0  0  0  0  0  0  0
   24.8428   22.7937   25.6577 C   0  0  0  0  0  0  0  0  0  0  0  0
   25.3118   21.6624   26.4005 C   0  0  0  0  0  0  0  0  0  0  0  0
   24.4658   25.1864   25.5218 O   0  0  0  0  0  0  0  0  0  0  0  0
   24.4752   26.0469   25.8923 H   0  0  0  0  0  0  0  0  0  0  0  0
   25.4594   25.7137   28.2164 C   0  0  0  0  0  0  0  0  0  0  0  0
   24.1630   26.1685   28.9474 C   0  0  0  0  0  0  0  0  0  0  0  0
   23.9460   26.4435   30.2455 C   0  0  0  0  0  0  0  0  0  0  0  0
   22.6145   26.9006   30.6625 C   0  0  0  0  0  0  0  0  0  0  0  0
   25.0480   26.3873   31.1966 C   0  0  0  0  0  0  0  0  0  0  0  0
   21.1408   25.3619   34.1494 O   0  0  0  0  0  0  0  0  0  0  0  0
   22.0002   28.3291   34.4659 C   0  0  0  0  0  0  0  0  0  0  0  0
   20.1121   29.6552   33.8039 C   0  0  0  0  0  0  0  0  0  0  0  0
   19.7900   28.1822   35.8974 C   0  0  0  0  0  0  0  0  0  0  0  0
   19.9669   26.7456   36.4430 C   0  0  0  0  0  0  0  0  0  0  0  0
   19.2526   25.7427   35.5187 C   0  0  0  0  0  0  0  0  0  0  0  0
   19.8503   25.9404   34.0937 C   0  0  0  0  0  0  0  0  0  0  0  0
   20.4626   28.3355   34.4853 C   0  0  0  0  0  0  0  0  0  0  0  0
   19.9594   27.2956   33.6543 O   0  0  0  0  0  0  0  0  0  0  0  0
   17.8470   25.9973   35.6187 O   0  0  0  0  0  0  0  0  0  0  0  0
   17.6687   26.9224   35.3880 H   0  0  0  0  0  0  0  0  0  0  0  0
   19.4838   30.0312   37.4492 C   0  0  0  0  0  0  0  0  0  0  0  0
   20.3440   29.0526   36.8758 O   0  0  0  0  0  0  0  0  0  0  0  0
   19.4421   26.6504   37.7697 O   0  0  0  0  0  0  0  0  0  0  0  0
   20.2691   26.2915   38.8108 C   0  0  0  0  0  0  0  0  0  0  0  0
   21.3616   26.7972   38.9771 O   0  0  0  0  0  0  0  0  0  0  0  0
   18.8682   23.3482   40.4747 C   0  0  0  0  0  0  0  0  0  0  0  0
   19.0600   24.0325   39.3574 C   0  0  0  0  0  0  0  0  0  0  0  0
   19.7344   25.2741   39.6889 C   0  0  0  0  0  0  0  0  0  0  0  0
   19.9647   25.3285   41.1309 N   0  0  0  0  0  0  0  0  0  0  0  0
   19.3281   24.1046   41.6274 C   0  0  0  0  0  0  0  0  0  0  0  0
   19.0575   24.0596   43.0678 C   0  0  0  0  0  0  0  0  0  0  0  0
   20.4356   26.0224   41.6467 H   0  0  0  0  0  0  0  0  0  0  0  0
 43 44  1  0  0  0
 33 39  1  0  0  0
 34 39  1  0  0  0
 35 36  1  0  0  0
 35 39  1  0  0  0
 35 44  1  0  0  0
 36 37  1  0  0  0
 36 45  1  0  0  0
 37 38  1  0  0  0
 37 41  1  0  0  0
 38 40  1  0  0  0
 38 32  1  0  0  0
 39 40  1  0  0  0
  1  3  1  0  0  0
  2  3  2  0  0  0
  2 10  1  0  0  0
  2 32  1  0  0  0
  3  4  1  0  0  0
  4  8  2  0  0  0
  4 12  1  0  0  0
  5  6  1  0  0  0
  5 12  1  0  0  0
  5 13  2  0  0  0
  6  7  2  0  0  0
  6 16  1  0  0  0
  7  8  1  0  0  0
  7 11  1  0  0  0
  8  9  1  0  0  0
  9 10  2  0  0  0
 15 19  1  0  0  0
 15 16  1  0  0  0
 15 17  2  0  0  0
 19 20  2  0  0  0
 19 24  1  0  0  0
 20 21  1  0  0  0
 21 22  2  0  0  0
 21 27  1  0  0  0
 22 23  1  0  0  0
 22 25  1  0  0  0
 23 24  2  0  0  0
 27 28  1  0  0  0
 28 29  2  0  0  0
 29 30  1  0  0  0
 29 31  1  0  0  0
 45 46  1  0  0  0
 48 49  1  0  0  0
 48 52  2  0  0  0
 49 50  2  0  0  0
 50 51  1  0  0  0
 50 46  1  0  0  0
 51 52  1  0  0  0
 52 53  1  0  0  0
 46 47  2  0  0  0
 16 18  1  0  0  0
 11 14  1  0  0  0
 25 26  1  0  0  0
 51 54  1  0  0  0
 41 42  1  0  0  0
M  END
> <minimizedAffinity>
-7.70962

$$$$
