1BTY_BEN_A_246
  RCSB PDB12061702063D
Coordinates from PDB:1BTY:A:246 Model:1 without hydrogens
  9  9  0  0  0  0            999 V2000
   29.1530   14.9380   16.6130   C 0  0  0  0  0  0  0  0  0  0  0  0
   28.7170   15.5690   17.7790   C 0  0  0  0  0  0  0  0  0  0  0  0
   28.3690   14.8750   18.9190   C 0  0  0  0  0  0  0  0  0  0  0  0
   28.4450   13.5150   18.9280   C 0  0  0  0  0  0  0  0  0  0  0  0
   28.8680   12.8610   17.7990   C 0  0  0  0  0  0  0  0  0  0  0  0
   29.2190   13.5540   16.6600   C 0  0  0  0  0  0  0  0  0  0  0  0
   29.4980   15.6480   15.4570   C 0  0  0  0  0  0  0  0  0  0  0  0
   30.2210   15.0460   14.5320   N 0  0  0  0  0  0  0  0  0  0  0  0
   29.0940   16.8930   15.3220   N 0  0  0  0  0  0  0  0  0  0  0  0
  1  2  2  0  0  0  0
  1  6  1  0  0  0  0
  1  7  1  0  0  0  0
  2  3  1  0  0  0  0
  3  4  2  0  0  0  0
  4  5  1  0  0  0  0
  5  6  2  0  0  0  0
  7  8  2  0  0  0  0
  7  9  1  0  0  0  0
A    1
C1
A    2
C2
A    3
C3
A    4
C4
A    5
C5
A    6
C6
A    7
C
A    8
N1
A    9
N2
M  END
>  <InstanceId>
1BTY_BEN_A_246

>  <ChemCompId>
BEN

>  <PdbId>
1BTY

>  <ChainId>
A

>  <ResidueNumber>
246

>  <InsertionCode>


>  <Model>
1

>  <AltIds>


>  <MissingHeavyAtoms>
0

>  <ObservedFormula>
C7 N2

>  <Name>
BENZAMIDINE

>  <SystematicName>
benzenecarboximidamide

>  <Synonyms>


>  <Type>
NON-POLYMER

>  <Formula>
C7 H8 N2

>  <MolecularWeight>
120.152

>  <ModifiedDate>
2011-06-04

>  <Parent>


>  <OneLetterCode>


>  <SubcomponentList>


>  <AmbiguousFlag>
N

>  <InChI>
InChI=1S/C7H8N2/c8-7(9)6-4-2-1-3-5-6/h1-5H,(H3,8,9)

>  <InChIKey>
PXXJHWLDUBFPOL-UHFFFAOYSA-N

>  <SMILES>
[H]/N=C(\c1ccccc1)/N

$$$$
