1BTY_BEN_A_246


 12 12  0  0  0  0  0  0  0  0999 V2000
   29.0545   14.8779   16.6812 C   0  0  0  0  0  0  0  0  0  0  0  0
   28.5096   15.5143   17.7974 C   0  0  0  0  0  0  0  0  0  0  0  0
   27.9671   14.8236   18.8608 C   0  0  0  0  0  0  0  0  0  0  0  0
   27.9505   13.4617   18.8401 C   0  0  0  0  0  0  0  0  0  0  0  0
   28.4761   12.8025   17.7582 C   0  0  0  0  0  0  0  0  0  0  0  0
   29.0214   13.4920   16.6962 C   0  0  0  0  0  0  0  0  0  0  0  0
   29.5973   15.5851   15.6020 C   0  0  0  0  0  0  0  0  0  0  0  0
   29.1486   16.7990   15.3459 N   0  0  0  0  0  0  0  0  0  0  0  0
   30.5381   15.0239   14.8729 N   0  0  0  0  0  0  0  0  0  0  0  0
   28.4437   17.1924   15.9095 H   0  0  0  0  0  0  0  0  0  0  0  0
   30.8525   14.1162   15.0887 H   0  0  0  0  0  0  0  0  0  0  0  0
   30.9275   15.5117   14.1115 H   0  0  0  0  0  0  0  0  0  0  0  0
  1  2  2  0  0  0
  1  6  1  0  0  0
  1  7  1  0  0  0
  2  3  1  0  0  0
  3  4  2  0  0  0
  4  5  1  0  0  0
  5  6  2  0  0  0
  7  8  2  0  0  0
  7  9  1  0  0  0
  8 10  1  0  0  0
  9 11  1  0  0  0
  9 12  1  0  0  0
M  END
> <minimizedAffinity>
-5.64935

$$$$
1BTY_BEN_A_246


 12 12  0  0  0  0  0  0  0  0999 V2000
   29.0472   14.8644   16.6918 C   0  0  0  0  0  0  0  0  0  0  0  0
   28.9925   13.4700   16.7168 C   0  0  0  0  0  0  0  0  0  0  0  0
   28.4541   12.7620   17.7709 C   0  0  0  0  0  0  0  0  0  0  0  0
   27.9504   13.4326   18.8442 C   0  0  0  0  0  0  0  0  0  0  0  0
   27.9889   14.8037   18.8547 C   0  0  0  0  0  0  0  0  0  0  0  0
   28.5241   15.5124   17.8002 C   0  0  0  0  0  0  0  0  0  0  0  0
   29.6015   15.5767   15.6219 C   0  0  0  0  0  0  0  0  0  0  0  0
   29.1493   16.7885   15.3614 N   0  0  0  0  0  0  0  0  0  0  0  0
   30.5561   15.0225   14.9056 N   0  0  0  0  0  0  0  0  0  0  0  0
   28.4339   17.1766   15.9153 H   0  0  0  0  0  0  0  0  0  0  0  0
   30.8727   14.1163   15.1245 H   0  0  0  0  0  0  0  0  0  0  0  0
   30.9537   15.5140   14.1509 H   0  0  0  0  0  0  0  0  0  0  0  0
  1  2  2  0  0  0
  1  6  1  0  0  0
  1  7  1  0  0  0
  2  3  1  0  0  0
  3  4  2  0  0  0
  4  5  1  0  0  0
  5  6  2  0  0  0
  7  8  2  0  0  0
  7  9  1  0  0  0
  8 10  1  0  0  0
  9 11  1  0  0  0
  9 12  1  0  0  0
M  END
> <minimizedAffinity>
-5.63473

$$$$
1BTY_BEN_A_246


 12 12  0  0  0  0  0  0  0  0999 V2000
   29.0016   14.8963   16.6689 C   0  0  0  0  0  0  0  0  0  0  0  0
   28.9955   13.5014   16.7145 C   0  0  0  0  0  0  0  0  0  0  0  0
   28.4927   12.7908   17.7843 C   0  0  0  0  0  0  0  0  0  0  0  0
   27.9772   13.4595   18.8532 C   0  0  0  0  0  0  0  0  0  0  0  0
   27.9682   14.8310   18.8436 C   0  0  0  0  0  0  0  0  0  0  0  0
   28.4677   15.5422   17.7733 C   0  0  0  0  0  0  0  0  0  0  0  0
   29.5199   15.6115   15.5829 C   0  0  0  0  0  0  0  0  0  0  0  0
   30.3901   15.0193   14.7874 N   0  0  0  0  0  0  0  0  0  0  0  0
   29.1276   16.8515   15.3830 N   0  0  0  0  0  0  0  0  0  0  0  0
   30.6644   14.0902   14.9627 H   0  0  0  0  0  0  0  0  0  0  0  0
   28.4767   17.2664   15.9940 H   0  0  0  0  0  0  0  0  0  0  0  0
   29.4850   17.3643   14.6224 H   0  0  0  0  0  0  0  0  0  0  0  0
  1  2  2  0  0  0
  1  6  1  0  0  0
  1  7  1  0  0  0
  2  3  1  0  0  0
  3  4  2  0  0  0
  4  5  1  0  0  0
  5  6  2  0  0  0
  7  8  2  0  0  0
  7  9  1  0  0  0
  8 10  1  0  0  0
  9 11  1  0  0  0
  9 12  1  0  0  0
M  END
> <minimizedAffinity>
-5.57658

$$$$
1BTY_BEN_A_246


 12 12  0  0  0  0  0  0  0  0999 V2000
   28.7191   14.6937   17.7915 C   0  0  0  0  0  0  0  0  0  0  0  0
   28.3171   15.9086   17.2346 C   0  0  0  0  0  0  0  0  0  0  0  0
   28.6501   16.2892   15.9514 C   0  0  0  0  0  0  0  0  0  0  0  0
   29.4047   15.4595   15.1783 C   0  0  0  0  0  0  0  0  0  0  0  0
   29.8191   14.2578   15.6935 C   0  0  0  0  0  0  0  0  0  0  0  0
   29.4841   13.8752   16.9750 C   0  0  0  0  0  0  0  0  0  0  0  0
   28.3835   14.3166   19.0971 C   0  0  0  0  0  0  0  0  0  0  0  0
   29.1582   13.4568   19.7306 N   0  0  0  0  0  0  0  0  0  0  0  0
   27.3083   14.8273   19.6580 N   0  0  0  0  0  0  0  0  0  0  0  0
   29.9563   13.0918   19.2845 H   0  0  0  0  0  0  0  0  0  0  0  0
   26.7498   15.4669   19.1598 H   0  0  0  0  0  0  0  0  0  0  0  0
   27.0624   14.5697   20.5759 H   0  0  0  0  0  0  0  0  0  0  0  0
  1  2  2  0  0  0
  1  6  1  0  0  0
  1  7  1  0  0  0
  2  3  1  0  0  0
  3  4  2  0  0  0
  4  5  1  0  0  0
  5  6  2  0  0  0
  7  8  2  0  0  0
  7  9  1  0  0  0
  8 10  1  0  0  0
  9 11  1  0  0  0
  9 12  1  0  0  0
M  END
> <minimizedAffinity>
-5.06866

$$$$
1BTY_BEN_A_246


 12 12  0  0  0  0  0  0  0  0999 V2000
   28.7304   14.6895   17.8056 C   0  0  0  0  0  0  0  0  0  0  0  0
   29.4998   13.8797   16.9689 C   0  0  0  0  0  0  0  0  0  0  0  0
   29.8364   14.2420   15.6813 C   0  0  0  0  0  0  0  0  0  0  0  0
   29.4084   15.4360   15.1848 C   0  0  0  0  0  0  0  0  0  0  0  0
   28.6487   16.2570   15.9786 C   0  0  0  0  0  0  0  0  0  0  0  0
   28.3142   15.8972   17.2668 C   0  0  0  0  0  0  0  0  0  0  0  0
   28.3863   14.3127   19.1091 C   0  0  0  0  0  0  0  0  0  0  0  0
   29.1574   13.4538   19.7481 N   0  0  0  0  0  0  0  0  0  0  0  0
   27.3070   14.8228   19.6626 N   0  0  0  0  0  0  0  0  0  0  0  0
   29.9587   13.0892   19.3075 H   0  0  0  0  0  0  0  0  0  0  0  0
   26.7513   15.4618   19.1604 H   0  0  0  0  0  0  0  0  0  0  0  0
   27.0551   14.5655   20.5789 H   0  0  0  0  0  0  0  0  0  0  0  0
  1  2  2  0  0  0
  1  6  1  0  0  0
  1  7  1  0  0  0
  2  3  1  0  0  0
  3  4  2  0  0  0
  4  5  1  0  0  0
  5  6  2  0  0  0
  7  8  2  0  0  0
  7  9  1  0  0  0
  8 10  1  0  0  0
  9 11  1  0  0  0
  9 12  1  0  0  0
M  END
> <minimizedAffinity>
-5.06397

$$$$
1BTY_BEN_A_246


 12 12  0  0  0  0  0  0  0  0999 V2000
   28.3333   13.7603   18.2081 C   0  0  0  0  0  0  0  0  0  0  0  0
   29.0772   13.4027   17.0827 C   0  0  0  0  0  0  0  0  0  0  0  0
   29.4168   14.3027   16.0943 C   0  0  0  0  0  0  0  0  0  0  0  0
   29.0175   15.6007   16.2005 C   0  0  0  0  0  0  0  0  0  0  0  0
   28.2833   15.9877   17.2926 C   0  0  0  0  0  0  0  0  0  0  0  0
   27.9460   15.0894   18.2826 C   0  0  0  0  0  0  0  0  0  0  0  0
   27.9860   12.8402   19.2042 C   0  0  0  0  0  0  0  0  0  0  0  0
   28.7524   12.7398   20.2735 N   0  0  0  0  0  0  0  0  0  0  0  0
   26.9079   12.1016   19.0502 N   0  0  0  0  0  0  0  0  0  0  0  0
   29.5529   13.3062   20.3603 H   0  0  0  0  0  0  0  0  0  0  0  0
   26.3558   12.1992   18.2410 H   0  0  0  0  0  0  0  0  0  0  0  0
   26.6535   11.4512   19.7442 H   0  0  0  0  0  0  0  0  0  0  0  0
  1  2  2  0  0  0
  1  6  1  0  0  0
  1  7  1  0  0  0
  2  3  1  0  0  0
  3  4  2  0  0  0
  4  5  1  0  0  0
  5  6  2  0  0  0
  7  8  2  0  0  0
  7  9  1  0  0  0
  8 10  1  0  0  0
  9 11  1  0  0  0
  9 12  1  0  0  0
M  END
> <minimizedAffinity>
-4.93547

$$$$
1BTY_BEN_A_246


 12 12  0  0  0  0  0  0  0  0999 V2000
   28.1774   13.3759   18.1644 C   0  0  0  0  0  0  0  0  0  0  0  0
   28.0745   14.7148   18.5448 C   0  0  0  0  0  0  0  0  0  0  0  0
   28.6151   15.7456   17.8049 C   0  0  0  0  0  0  0  0  0  0  0  0
   29.2838   15.4669   16.6514 C   0  0  0  0  0  0  0  0  0  0  0  0
   29.4060   14.1618   16.2474 C   0  0  0  0  0  0  0  0  0  0  0  0
   28.8632   13.1310   16.9848 C   0  0  0  0  0  0  0  0  0  0  0  0
   27.6324   12.3338   18.9237 C   0  0  0  0  0  0  0  0  0  0  0  0
   27.7940   11.0918   18.5089 N   0  0  0  0  0  0  0  0  0  0  0  0
   26.9755   12.6177   20.0279 N   0  0  0  0  0  0  0  0  0  0  0  0
   28.2906   10.9109   17.6784 H   0  0  0  0  0  0  0  0  0  0  0  0
   26.8714   13.5546   20.3118 H   0  0  0  0  0  0  0  0  0  0  0  0
   26.5880   11.8931   20.5702 H   0  0  0  0  0  0  0  0  0  0  0  0
  1  2  2  0  0  0
  1  6  1  0  0  0
  1  7  1  0  0  0
  2  3  1  0  0  0
  3  4  2  0  0  0
  4  5  1  0  0  0
  5  6  2  0  0  0
  7  8  2  0  0  0
  7  9  1  0  0  0
  8 10  1  0  0  0
  9 11  1  0  0  0
  9 12  1  0  0  0
M  END
> <minimizedAffinity>
-4.82626

$$$$
1BTY_BEN_A_246


 12 12  0  0  0  0  0  0  0  0999 V2000
   28.8351   13.2898   17.1903 C   0  0  0  0  0  0  0  0  0  0  0  0
   28.3804   13.6140   18.4693 C   0  0  0  0  0  0  0  0  0  0  0  0
   28.3492   14.9080   18.9457 C   0  0  0  0  0  0  0  0  0  0  0  0
   28.7777   15.9278   18.1509 C   0  0  0  0  0  0  0  0  0  0  0  0
   29.2329   15.6461   16.8881 C   0  0  0  0  0  0  0  0  0  0  0  0
   29.2616   14.3533   16.4099 C   0  0  0  0  0  0  0  0  0  0  0  0
   28.8707   11.9734   16.7155 C   0  0  0  0  0  0  0  0  0  0  0  0
   27.9157   11.1391   17.0796 N   0  0  0  0  0  0  0  0  0  0  0  0
   29.8517   11.6025   15.9207 N   0  0  0  0  0  0  0  0  0  0  0  0
   27.1947   11.4461   17.6755 H   0  0  0  0  0  0  0  0  0  0  0  0
   30.5501   12.2480   15.6665 H   0  0  0  0  0  0  0  0  0  0  0  0
   29.8871   10.6794   15.5803 H   0  0  0  0  0  0  0  0  0  0  0  0
  1  2  2  0  0  0
  1  6  1  0  0  0
  1  7  1  0  0  0
  2  3  1  0  0  0
  3  4  2  0  0  0
  4  5  1  0  0  0
  5  6  2  0  0  0
  7  8  2  0  0  0
  7  9  1  0  0  0
  8 10  1  0  0  0
  9 11  1  0  0  0
  9 12  1  0  0  0
M  END
> <minimizedAffinity>
-4.10660

$$$$
1BTY_BEN_A_246


 12 12  0  0  0  0  0  0  0  0999 V2000
   27.5580   12.2824   18.9007 C   0  0  0  0  0  0  0  0  0  0  0  0
   26.9364   11.7641   20.0377 C   0  0  0  0  0  0  0  0  0  0  0  0
   26.3311   10.5250   20.0593 C   0  0  0  0  0  0  0  0  0  0  0  0
   26.3267    9.7588   18.9331 C   0  0  0  0  0  0  0  0  0  0  0  0
   26.9270   10.2370   17.7962 C   0  0  0  0  0  0  0  0  0  0  0  0
   27.5350   11.4742   17.7745 C   0  0  0  0  0  0  0  0  0  0  0  0
   28.1645   13.5439   18.8835 C   0  0  0  0  0  0  0  0  0  0  0  0
   29.3276   13.6830   18.2765 N   0  0  0  0  0  0  0  0  0  0  0  0
   27.5616   14.5556   19.4704 N   0  0  0  0  0  0  0  0  0  0  0  0
   29.7542   12.9071   17.8462 H   0  0  0  0  0  0  0  0  0  0  0  0
   26.6939   14.4207   19.9154 H   0  0  0  0  0  0  0  0  0  0  0  0
   27.9784   15.4475   19.4646 H   0  0  0  0  0  0  0  0  0  0  0  0
  1  2  2  0  0  0
  1  6  1  0  0  0
  1  7  1  0  0  0
  2  3  1  0  0  0
  3  4  2  0  0  0
  4  5  1  0  0  0
  5  6  2  0  0  0
  7  8  2  0  0  0
  7  9  1  0  0  0
  8 10  1  0  0  0
  9 11  1  0  0  0
  9 12  1  0  0  0
M  END
> <minimizedAffinity>
-4.03461

$$$$
1BTY_BEN_A_246


 12 12  0  0  0  0  0  0  0  0999 V2000
   26.5109   10.7464   20.7431 C   0  0  0  0  0  0  0  0  0  0  0  0
   26.7273    9.7728   21.7193 C   0  0  0  0  0  0  0  0  0  0  0  0
   25.7894    8.8131   22.0385 C   0  0  0  0  0  0  0  0  0  0  0  0
   24.5936    8.7982   21.3864 C   0  0  0  0  0  0  0  0  0  0  0  0
   24.3457    9.7412   20.4218 C   0  0  0  0  0  0  0  0  0  0  0  0
   25.2837   10.6990   20.0999 C   0  0  0  0  0  0  0  0  0  0  0  0
   27.4643   11.7220   20.4289 C   0  0  0  0  0  0  0  0  0  0  0  0
   28.6712   11.6249   20.9529 N   0  0  0  0  0  0  0  0  0  0  0  0
   27.1345   12.7075   19.6217 N   0  0  0  0  0  0  0  0  0  0  0  0
   28.8882   10.8757   21.5537 H   0  0  0  0  0  0  0  0  0  0  0  0
   26.2256   12.7530   19.2462 H   0  0  0  0  0  0  0  0  0  0  0  0
   27.7967   13.3993   19.3933 H   0  0  0  0  0  0  0  0  0  0  0  0
  1  2  2  0  0  0
  1  6  1  0  0  0
  1  7  1  0  0  0
  2  3  1  0  0  0
  3  4  2  0  0  0
  4  5  1  0  0  0
  5  6  2  0  0  0
  7  8  2  0  0  0
  7  9  1  0  0  0
  8 10  1  0  0  0
  9 11  1  0  0  0
  9 12  1  0  0  0
M  END
> <minimizedAffinity>
-3.65311

$$$$
