3ZDH_XRS_A_301


 14 14  0  0  0  0  0  0  0  0999 V2000
   54.2970   -3.5700  -54.9463 O   0  0  0  0  0  0  0  0  0  0  0  0
   54.7609   -3.4141  -53.6920 C   0  0  0  0  0  0  0  0  0  0  0  0
   55.9699   -3.0262  -53.2980 N   0  0  0  0  0  0  0  0  0  0  0  0
   55.9146   -3.0378  -51.9189 C   0  0  0  0  0  0  0  0  0  0  0  0
   54.6561   -3.4340  -51.5334 C   0  0  0  0  0  0  0  0  0  0  0  0
   53.9348   -3.6754  -52.6871 N   0  0  0  0  0  0  0  0  0  0  0  0
   52.5554   -4.1099  -52.7793 C   0  0  0  0  0  0  0  0  0  0  0  0
   54.7249   -4.7503  -55.6112 C   0  0  0  0  0  0  0  0  0  0  0  0
   55.4713   -4.3898  -56.9123 C   0  0  0  0  0  0  0  0  0  0  0  0
   56.9254   -4.9096  -57.0463 C   0  0  0  0  0  0  0  0  0  0  0  0
   57.3847   -4.7896  -58.5170 C   0  0  0  0  0  0  0  0  0  0  0  0
   57.8658   -4.2430  -56.0857 N   0  0  0  0  0  0  0  0  0  0  0  0
   58.0020   -2.7693  -56.2404 C   0  0  0  0  0  0  0  0  0  0  0  0
   59.1826   -4.9191  -55.9685 C   0  0  0  0  0  0  0  0  0  0  0  0
  2  3  2  0  0  0
  2  6  1  0  0  0
  2  1  1  0  0  0
  3  4  1  0  0  0
  4  5  2  0  0  0
  5  6  1  0  0  0
  6  7  1  0  0  0
  1  8  1  0  0  0
  8  9  1  0  0  0
  9 10  1  0  0  0
 10 12  1  0  0  0
 10 11  1  0  0  0
 12 13  1  0  0  0
 12 14  1  0  0  0
M  END
> <minimizedAffinity>
-6.16625

$$$$
3ZDH_XRS_A_301


 14 14  0  0  0  0  0  0  0  0999 V2000
   54.6175   -3.7731  -54.7085 O   0  0  0  0  0  0  0  0  0  0  0  0
   53.8474   -4.0533  -53.6402 C   0  0  0  0  0  0  0  0  0  0  0  0
   52.6664   -4.6628  -53.6071 N   0  0  0  0  0  0  0  0  0  0  0  0
   52.3186   -4.6907  -52.2717 C   0  0  0  0  0  0  0  0  0  0  0  0
   53.3198   -4.0919  -51.5447 C   0  0  0  0  0  0  0  0  0  0  0  0
   54.2875   -3.6857  -52.4436 N   0  0  0  0  0  0  0  0  0  0  0  0
   55.5333   -3.0109  -52.1393 C   0  0  0  0  0  0  0  0  0  0  0  0
   54.6476   -4.7740  -55.7163 C   0  0  0  0  0  0  0  0  0  0  0  0
   55.4970   -4.3008  -56.9140 C   0  0  0  0  0  0  0  0  0  0  0  0
   56.9281   -4.8858  -57.0255 C   0  0  0  0  0  0  0  0  0  0  0  0
   57.4172   -4.7823  -58.4878 C   0  0  0  0  0  0  0  0  0  0  0  0
   57.8814   -4.2656  -56.0467 N   0  0  0  0  0  0  0  0  0  0  0  0
   58.0313   -2.7885  -56.1459 C   0  0  0  0  0  0  0  0  0  0  0  0
   59.1921   -4.9586  -55.9645 C   0  0  0  0  0  0  0  0  0  0  0  0
  2  3  2  0  0  0
  2  6  1  0  0  0
  2  1  1  0  0  0
  3  4  1  0  0  0
  4  5  2  0  0  0
  5  6  1  0  0  0
  6  7  1  0  0  0
  1  8  1  0  0  0
  8  9  1  0  0  0
  9 10  1  0  0  0
 10 12  1  0  0  0
 10 11  1  0  0  0
 12 13  1  0  0  0
 12 14  1  0  0  0
M  END
> <minimizedAffinity>
-6.06029

$$$$
3ZDH_XRS_A_301


 14 14  0  0  0  0  0  0  0  0999 V2000
   55.2838   -3.5376  -56.6852 O   0  0  0  0  0  0  0  0  0  0  0  0
   56.3838   -4.0064  -57.3040 C   0  0  0  0  0  0  0  0  0  0  0  0
   56.4651   -4.7108  -58.4286 N   0  0  0  0  0  0  0  0  0  0  0  0
   57.8151   -4.9319  -58.6122 C   0  0  0  0  0  0  0  0  0  0  0  0
   58.5014   -4.3404  -57.5785 C   0  0  0  0  0  0  0  0  0  0  0  0
   57.5629   -3.7575  -56.7485 N   0  0  0  0  0  0  0  0  0  0  0  0
   57.8163   -3.0145  -55.5304 C   0  0  0  0  0  0  0  0  0  0  0  0
   54.7599   -4.3710  -55.6609 C   0  0  0  0  0  0  0  0  0  0  0  0
   54.3163   -3.5191  -54.4536 C   0  0  0  0  0  0  0  0  0  0  0  0
   54.2906   -4.2273  -53.0751 C   0  0  0  0  0  0  0  0  0  0  0  0
   55.0216   -3.3538  -52.0306 C   0  0  0  0  0  0  0  0  0  0  0  0
   52.9030   -4.6071  -52.6488 N   0  0  0  0  0  0  0  0  0  0  0  0
   52.6620   -4.6113  -51.1804 C   0  0  0  0  0  0  0  0  0  0  0  0
   52.3888   -5.8356  -53.3055 C   0  0  0  0  0  0  0  0  0  0  0  0
  2  3  2  0  0  0
  2  6  1  0  0  0
  2  1  1  0  0  0
  3  4  1  0  0  0
  4  5  2  0  0  0
  5  6  1  0  0  0
  6  7  1  0  0  0
  1  8  1  0  0  0
  8  9  1  0  0  0
  9 10  1  0  0  0
 10 12  1  0  0  0
 10 11  1  0  0  0
 12 13  1  0  0  0
 12 14  1  0  0  0
M  END
> <minimizedAffinity>
-5.37934

$$$$
3ZDH_XRS_A_301


 14 14  0  0  0  0  0  0  0  0999 V2000
   56.6932   -3.0819  -53.3807 O   0  0  0  0  0  0  0  0  0  0  0  0
   55.4352   -3.4338  -53.0548 C   0  0  0  0  0  0  0  0  0  0  0  0
   54.5241   -4.0431  -53.8072 N   0  0  0  0  0  0  0  0  0  0  0  0
   53.4146   -4.1620  -52.9946 C   0  0  0  0  0  0  0  0  0  0  0  0
   53.7082   -3.6153  -51.7681 C   0  0  0  0  0  0  0  0  0  0  0  0
   55.0076   -3.1494  -51.8313 N   0  0  0  0  0  0  0  0  0  0  0  0
   55.7538   -2.4982  -50.7735 C   0  0  0  0  0  0  0  0  0  0  0  0
   56.8885   -2.7075  -54.7371 C   0  0  0  0  0  0  0  0  0  0  0  0
   58.0221   -3.5448  -55.3646 C   0  0  0  0  0  0  0  0  0  0  0  0
   57.8429   -3.9563  -56.8482 C   0  0  0  0  0  0  0  0  0  0  0  0
   58.0738   -5.4773  -56.9952 C   0  0  0  0  0  0  0  0  0  0  0  0
   56.5274   -3.5091  -57.4147 N   0  0  0  0  0  0  0  0  0  0  0  0
   55.4938   -4.5708  -57.5509 C   0  0  0  0  0  0  0  0  0  0  0  0
   56.6524   -2.6864  -58.6445 C   0  0  0  0  0  0  0  0  0  0  0  0
  2  3  2  0  0  0
  2  6  1  0  0  0
  2  1  1  0  0  0
  3  4  1  0  0  0
  4  5  2  0  0  0
  5  6  1  0  0  0
  6  7  1  0  0  0
  1  8  1  0  0  0
  8  9  1  0  0  0
  9 10  1  0  0  0
 10 12  1  0  0  0
 10 11  1  0  0  0
 12 13  1  0  0  0
 12 14  1  0  0  0
M  END
> <minimizedAffinity>
-5.28829

$$$$
3ZDH_XRS_A_301


 14 14  0  0  0  0  0  0  0  0999 V2000
   56.0789   -3.2977  -54.5504 O   0  0  0  0  0  0  0  0  0  0  0  0
   55.6222   -3.2238  -53.2860 C   0  0  0  0  0  0  0  0  0  0  0  0
   56.1090   -2.5194  -52.2690 N   0  0  0  0  0  0  0  0  0  0  0  0
   55.2728   -2.8031  -51.2082 C   0  0  0  0  0  0  0  0  0  0  0  0
   54.3010   -3.6758  -51.6365 C   0  0  0  0  0  0  0  0  0  0  0  0
   54.5480   -3.9362  -52.9708 N   0  0  0  0  0  0  0  0  0  0  0  0
   53.7820   -4.7983  -53.8484 C   0  0  0  0  0  0  0  0  0  0  0  0
   57.4483   -2.9612  -54.7235 C   0  0  0  0  0  0  0  0  0  0  0  0
   57.8021   -2.9175  -56.2245 C   0  0  0  0  0  0  0  0  0  0  0  0
   56.8754   -3.7113  -57.1804 C   0  0  0  0  0  0  0  0  0  0  0  0
   56.4568   -2.8091  -58.3632 C   0  0  0  0  0  0  0  0  0  0  0  0
   57.4826   -5.0098  -57.6241 N   0  0  0  0  0  0  0  0  0  0  0  0
   58.3403   -5.6932  -56.6184 C   0  0  0  0  0  0  0  0  0  0  0  0
   58.1270   -4.9451  -58.9603 C   0  0  0  0  0  0  0  0  0  0  0  0
  2  3  2  0  0  0
  2  6  1  0  0  0
  2  1  1  0  0  0
  3  4  1  0  0  0
  4  5  2  0  0  0
  5  6  1  0  0  0
  6  7  1  0  0  0
  1  8  1  0  0  0
  8  9  1  0  0  0
  9 10  1  0  0  0
 10 12  1  0  0  0
 10 11  1  0  0  0
 12 13  1  0  0  0
 12 14  1  0  0  0
M  END
> <minimizedAffinity>
-5.18912

$$$$
3ZDH_XRS_A_301


 14 14  0  0  0  0  0  0  0  0999 V2000
   55.1305   -1.2898  -50.8158 O   0  0  0  0  0  0  0  0  0  0  0  0
   56.0668   -0.4684  -50.3047 C   0  0  0  0  0  0  0  0  0  0  0  0
   57.1485   -0.7827  -49.5987 N   0  0  0  0  0  0  0  0  0  0  0  0
   57.7572    0.4255  -49.3249 C   0  0  0  0  0  0  0  0  0  0  0  0
   57.0089    1.4316  -49.8881 C   0  0  0  0  0  0  0  0  0  0  0  0
   55.9265    0.8356  -50.5066 N   0  0  0  0  0  0  0  0  0  0  0  0
   54.8653    1.4981  -51.2381 C   0  0  0  0  0  0  0  0  0  0  0  0
   55.6021   -2.5609  -51.2404 C   0  0  0  0  0  0  0  0  0  0  0  0
   54.5751   -3.2250  -52.1807 C   0  0  0  0  0  0  0  0  0  0  0  0
   54.8544   -3.1180  -53.7016 C   0  0  0  0  0  0  0  0  0  0  0  0
   56.3768   -3.1977  -53.9553 C   0  0  0  0  0  0  0  0  0  0  0  0
   54.0769   -4.1215  -54.5016 N   0  0  0  0  0  0  0  0  0  0  0  0
   53.4618   -5.2275  -53.7190 C   0  0  0  0  0  0  0  0  0  0  0  0
   54.7945   -4.6161  -55.7038 C   0  0  0  0  0  0  0  0  0  0  0  0
  2  3  2  0  0  0
  2  6  1  0  0  0
  2  1  1  0  0  0
  3  4  1  0  0  0
  4  5  2  0  0  0
  5  6  1  0  0  0
  6  7  1  0  0  0
  1  8  1  0  0  0
  8  9  1  0  0  0
  9 10  1  0  0  0
 10 12  1  0  0  0
 10 11  1  0  0  0
 12 13  1  0  0  0
 12 14  1  0  0  0
M  END
> <minimizedAffinity>
-5.10410

$$$$
3ZDH_XRS_A_301


 14 14  0  0  0  0  0  0  0  0999 V2000
   55.7264   -4.1033  -55.5867 O   0  0  0  0  0  0  0  0  0  0  0  0
   56.4599   -4.2799  -56.7018 C   0  0  0  0  0  0  0  0  0  0  0  0
   56.2012   -5.0565  -57.7494 N   0  0  0  0  0  0  0  0  0  0  0  0
   57.2694   -4.8687  -58.6030 C   0  0  0  0  0  0  0  0  0  0  0  0
   58.1379   -3.9715  -58.0285 C   0  0  0  0  0  0  0  0  0  0  0  0
   57.6012   -3.6114  -56.8071 N   0  0  0  0  0  0  0  0  0  0  0  0
   58.1628   -2.6829  -55.8465 C   0  0  0  0  0  0  0  0  0  0  0  0
   54.4062   -4.6255  -55.6375 C   0  0  0  0  0  0  0  0  0  0  0  0
   53.9473   -5.0559  -54.2289 C   0  0  0  0  0  0  0  0  0  0  0  0
   53.6991   -3.9216  -53.2020 C   0  0  0  0  0  0  0  0  0  0  0  0
   52.3542   -4.1624  -52.4798 C   0  0  0  0  0  0  0  0  0  0  0  0
   54.8470   -3.7436  -52.2523 N   0  0  0  0  0  0  0  0  0  0  0  0
   54.4757   -3.5884  -50.8198 C   0  0  0  0  0  0  0  0  0  0  0  0
   55.8349   -2.7249  -52.6896 C   0  0  0  0  0  0  0  0  0  0  0  0
  2  3  2  0  0  0
  2  6  1  0  0  0
  2  1  1  0  0  0
  3  4  1  0  0  0
  4  5  2  0  0  0
  5  6  1  0  0  0
  6  7  1  0  0  0
  1  8  1  0  0  0
  8  9  1  0  0  0
  9 10  1  0  0  0
 10 12  1  0  0  0
 10 11  1  0  0  0
 12 13  1  0  0  0
 12 14  1  0  0  0
M  END
> <minimizedAffinity>
-4.93038

$$$$
3ZDH_XRS_A_301


 14 14  0  0  0  0  0  0  0  0999 V2000
   55.6951   -3.1323  -55.8246 O   0  0  0  0  0  0  0  0  0  0  0  0
   56.9059   -3.6143  -56.1629 C   0  0  0  0  0  0  0  0  0  0  0  0
   58.0425   -3.5556  -55.4759 N   0  0  0  0  0  0  0  0  0  0  0  0
   58.9716   -4.1952  -56.2715 C   0  0  0  0  0  0  0  0  0  0  0  0
   58.3471   -4.6220  -57.4192 C   0  0  0  0  0  0  0  0  0  0  0  0
   57.0239   -4.2337  -57.3304 N   0  0  0  0  0  0  0  0  0  0  0  0
   55.9780   -4.4686  -58.3055 C   0  0  0  0  0  0  0  0  0  0  0  0
   54.9574   -3.9286  -54.9080 C   0  0  0  0  0  0  0  0  0  0  0  0
   54.4784   -3.0698  -53.7193 C   0  0  0  0  0  0  0  0  0  0  0  0
   54.4825   -3.7480  -52.3256 C   0  0  0  0  0  0  0  0  0  0  0  0
   55.3927   -2.9506  -51.3644 C   0  0  0  0  0  0  0  0  0  0  0  0
   53.0993   -3.9543  -51.7818 N   0  0  0  0  0  0  0  0  0  0  0  0
   52.9990   -4.8751  -50.6173 C   0  0  0  0  0  0  0  0  0  0  0  0
   52.0838   -4.2534  -52.8230 C   0  0  0  0  0  0  0  0  0  0  0  0
  2  3  2  0  0  0
  2  6  1  0  0  0
  2  1  1  0  0  0
  3  4  1  0  0  0
  4  5  2  0  0  0
  5  6  1  0  0  0
  6  7  1  0  0  0
  1  8  1  0  0  0
  8  9  1  0  0  0
  9 10  1  0  0  0
 10 12  1  0  0  0
 10 11  1  0  0  0
 12 13  1  0  0  0
 12 14  1  0  0  0
M  END
> <minimizedAffinity>
-4.78482

$$$$
3ZDH_XRS_A_301


 14 14  0  0  0  0  0  0  0  0999 V2000
   56.1337   -1.8876  -50.5408 O   0  0  0  0  0  0  0  0  0  0  0  0
   55.8730   -0.5671  -50.5104 C   0  0  0  0  0  0  0  0  0  0  0  0
   54.8509    0.0884  -51.0516 N   0  0  0  0  0  0  0  0  0  0  0  0
   55.0664    1.4125  -50.7271 C   0  0  0  0  0  0  0  0  0  0  0  0
   56.2235    1.5012  -49.9904 C   0  0  0  0  0  0  0  0  0  0  0  0
   56.7269    0.2201  -49.8685 N   0  0  0  0  0  0  0  0  0  0  0  0
   57.9314   -0.1817  -49.1701 C   0  0  0  0  0  0  0  0  0  0  0  0
   55.2876   -2.6558  -51.3848 C   0  0  0  0  0  0  0  0  0  0  0  0
   55.9994   -2.9625  -52.7186 C   0  0  0  0  0  0  0  0  0  0  0  0
   55.2235   -3.8382  -53.7353 C   0  0  0  0  0  0  0  0  0  0  0  0
   53.7071   -3.7364  -53.4550 C   0  0  0  0  0  0  0  0  0  0  0  0
   55.5761   -3.5177  -55.1581 N   0  0  0  0  0  0  0  0  0  0  0  0
   55.0284   -4.4504  -56.1800 C   0  0  0  0  0  0  0  0  0  0  0  0
   57.0187   -3.2372  -55.3700 C   0  0  0  0  0  0  0  0  0  0  0  0
  2  3  2  0  0  0
  2  6  1  0  0  0
  2  1  1  0  0  0
  3  4  1  0  0  0
  4  5  2  0  0  0
  5  6  1  0  0  0
  6  7  1  0  0  0
  1  8  1  0  0  0
  8  9  1  0  0  0
  9 10  1  0  0  0
 10 12  1  0  0  0
 10 11  1  0  0  0
 12 13  1  0  0  0
 12 14  1  0  0  0
M  END
> <minimizedAffinity>
-4.58312

$$$$
3ZDH_XRS_A_301


 14 14  0  0  0  0  0  0  0  0999 V2000
   55.6035   -5.0885  -55.8111 O   0  0  0  0  0  0  0  0  0  0  0  0
   56.5777   -4.2001  -56.0836 C   0  0  0  0  0  0  0  0  0  0  0  0
   57.2487   -3.4216  -55.2403 N   0  0  0  0  0  0  0  0  0  0  0  0
   58.1237   -2.7087  -56.0348 C   0  0  0  0  0  0  0  0  0  0  0  0
   57.9441   -3.0951  -57.3417 C   0  0  0  0  0  0  0  0  0  0  0  0
   56.9438   -4.0483  -57.3499 N   0  0  0  0  0  0  0  0  0  0  0  0
   56.4148   -4.7486  -58.5031 C   0  0  0  0  0  0  0  0  0  0  0  0
   54.3324   -4.5265  -55.5163 C   0  0  0  0  0  0  0  0  0  0  0  0
   53.8202   -5.0473  -54.1575 C   0  0  0  0  0  0  0  0  0  0  0  0
   53.5051   -3.9804  -53.0781 C   0  0  0  0  0  0  0  0  0  0  0  0
   52.2241   -4.3813  -52.3122 C   0  0  0  0  0  0  0  0  0  0  0  0
   54.6701   -3.7197  -52.1692 N   0  0  0  0  0  0  0  0  0  0  0  0
   54.3750   -3.7897  -50.7125 C   0  0  0  0  0  0  0  0  0  0  0  0
   55.4500   -2.5076  -52.5262 C   0  0  0  0  0  0  0  0  0  0  0  0
  2  3  2  0  0  0
  2  6  1  0  0  0
  2  1  1  0  0  0
  3  4  1  0  0  0
  4  5  2  0  0  0
  5  6  1  0  0  0
  6  7  1  0  0  0
  1  8  1  0  0  0
  8  9  1  0  0  0
  9 10  1  0  0  0
 10 12  1  0  0  0
 10 11  1  0  0  0
 12 13  1  0  0  0
 12 14  1  0  0  0
M  END
> <minimizedAffinity>
-4.53394

$$$$
