1HVI_A77_A_800


 64 67  0  0  0  0  0  0  0  0999 V2000
    6.2687   -0.0054   15.0002 C   0  0  0  0  0  0  0  0  0  0  0  0
    7.4912   -0.6947   15.2144 O   0  0  0  0  0  0  0  0  0  0  0  0
    7.4442   -1.5718   14.8029 H   0  0  0  0  0  0  0  0  0  0  0  0
    5.2040   -0.3496   17.1625 O   0  0  0  0  0  0  0  0  0  0  0  0
    5.0508   -0.5954   15.7643 C   0  0  0  0  0  0  0  0  0  0  0  0
    5.3846    0.5924   17.3072 H   0  0  0  0  0  0  0  0  0  0  0  0
    4.7645   -2.0918   15.5432 C   0  0  0  0  0  0  0  0  0  0  0  0
    5.8062   -2.9752   16.1021 N   0  0  0  0  0  0  0  0  0  0  0  0
    6.5205   -3.8552   15.3909 C   0  0  0  0  0  0  0  0  0  0  0  0
    6.4154   -3.9611   14.1854 O   0  0  0  0  0  0  0  0  0  0  0  0
    5.9887   -2.9126   17.0675 H   0  0  0  0  0  0  0  0  0  0  0  0
    7.5294   -4.7132   16.1800 C   0  0  0  0  0  0  0  0  0  0  0  0
    6.9661   -5.9894   16.5840 N   0  0  0  0  0  0  0  0  0  0  0  0
    6.7662   -6.3218   17.8596 C   0  0  0  0  0  0  0  0  0  0  0  0
    7.1299   -5.6023   18.7788 O   0  0  0  0  0  0  0  0  0  0  0  0
    6.1782   -7.5281   18.0730 N   0  0  0  0  0  0  0  0  0  0  0  0
    5.7570   -8.3950   16.9617 C   0  0  0  0  0  0  0  0  0  0  0  0
    6.7210   -6.6378   15.8850 H   0  0  0  0  0  0  0  0  0  0  0  0
    5.8806   -7.9916   19.4441 C   0  0  0  0  0  0  0  0  0  0  0  0
    4.5206   -7.5205   19.9049 C   0  0  0  0  0  0  0  0  0  0  0  0
    3.3766   -8.2572   19.5897 C   0  0  0  0  0  0  0  0  0  0  0  0
    4.4802   -6.3675   20.6032 N   0  0  0  0  0  0  0  0  0  0  0  0
    2.1334   -7.7864   20.0123 C   0  0  0  0  0  0  0  0  0  0  0  0
    3.2770   -5.9153   20.9892 C   0  0  0  0  0  0  0  0  0  0  0  0
    2.0788   -6.5891   20.7268 C   0  0  0  0  0  0  0  0  0  0  0  0
    8.8384   -4.9164   15.3838 C   0  0  0  0  0  0  0  0  0  0  0  0
    9.6653   -3.6215   15.3405 C   0  0  0  0  0  0  0  0  0  0  0  0
    9.7049   -6.0222   15.9818 C   0  0  0  0  0  0  0  0  0  0  0  0
    3.4008   -2.4965   16.1355 C   0  0  0  0  0  0  0  0  0  0  0  0
    3.0176   -3.9477   15.8903 C   0  0  0  0  0  0  0  0  0  0  0  0
    2.3753   -4.3279   14.6990 C   0  0  0  0  0  0  0  0  0  0  0  0
    1.9800   -5.6612   14.5062 C   0  0  0  0  0  0  0  0  0  0  0  0
    2.2243   -6.6354   15.4848 C   0  0  0  0  0  0  0  0  0  0  0  0
    2.8802   -6.2707   16.6625 C   0  0  0  0  0  0  0  0  0  0  0  0
    3.2708   -4.9342   16.8628 C   0  0  0  0  0  0  0  0  0  0  0  0
    6.1077    0.1763   13.4883 C   0  0  0  0  0  0  0  0  0  0  0  0
    3.8699    0.2508   12.3736 C   0  0  0  0  0  0  0  0  0  0  0  0
    3.9908   -0.8686   11.9049 O   0  0  0  0  0  0  0  0  0  0  0  0
    4.7874    0.7960   13.1832 N   0  0  0  0  0  0  0  0  0  0  0  0
    4.5760    1.6610   13.6031 H   0  0  0  0  0  0  0  0  0  0  0  0
    2.6856    1.1543   12.0308 C   0  0  0  0  0  0  0  0  0  0  0  0
    3.4694    3.2949   11.0788 C   0  0  0  0  0  0  0  0  0  0  0  0
    3.4419    3.8369   12.1644 O   0  0  0  0  0  0  0  0  0  0  0  0
    3.9367    3.9289    9.9848 N   0  0  0  0  0  0  0  0  0  0  0  0
    3.9917    3.2909    8.6646 C   0  0  0  0  0  0  0  0  0  0  0  0
    3.0468    2.0506   10.9174 N   0  0  0  0  0  0  0  0  0  0  0  0
    2.9691    1.7033    9.9995 H   0  0  0  0  0  0  0  0  0  0  0  0
    4.4267    5.3054   10.1005 C   0  0  0  0  0  0  0  0  0  0  0  0
    5.9197    5.4130   10.3271 C   0  0  0  0  0  0  0  0  0  0  0  0
    6.4411    5.3567   11.6199 C   0  0  0  0  0  0  0  0  0  0  0  0
    6.6864    5.5094    9.2385 N   0  0  0  0  0  0  0  0  0  0  0  0
    7.8282    5.3775   11.7564 C   0  0  0  0  0  0  0  0  0  0  0  0
    8.0100    5.5363    9.3813 C   0  0  0  0  0  0  0  0  0  0  0  0
    8.6387    5.4661   10.6157 C   0  0  0  0  0  0  0  0  0  0  0  0
    1.4141    0.3476   11.6972 C   0  0  0  0  0  0  0  0  0  0  0  0
    0.6238   -0.0467   12.9585 C   0  0  0  0  0  0  0  0  0  0  0  0
    0.5037    1.1030   10.7197 C   0  0  0  0  0  0  0  0  0  0  0  0
    7.2044    1.1442   13.0132 C   0  0  0  0  0  0  0  0  0  0  0  0
    7.5828    0.9997   11.5767 C   0  0  0  0  0  0  0  0  0  0  0  0
    8.5132    0.0411   11.1868 C   0  0  0  0  0  0  0  0  0  0  0  0
    8.8748   -0.0635    9.8400 C   0  0  0  0  0  0  0  0  0  0  0  0
    8.2957    0.7767    8.8917 C   0  0  0  0  0  0  0  0  0  0  0  0
    7.3481    1.7257    9.3021 C   0  0  0  0  0  0  0  0  0  0  0  0
    6.9942    1.8419   10.6471 C   0  0  0  0  0  0  0  0  0  0  0  0
 42 43  2  0  0  0
 42 44  1  0  0  0
 42 46  1  0  0  0
 44 45  1  0  0  0
 44 48  1  0  0  0
 48 49  1  0  0  0
 49 50  1  0  0  0
 49 51  2  0  0  0
 50 52  2  0  0  0
 51 53  1  0  0  0
 52 54  1  0  0  0
 53 54  2  0  0  0
 46 41  1  0  0  0
 41 37  1  0  0  0
 41 55  1  0  0  0
 37 38  2  0  0  0
 37 39  1  0  0  0
 55 56  1  0  0  0
 55 57  1  0  0  0
 39 36  1  0  0  0
 36 58  1  0  0  0
 36  1  1  0  0  0
 58 59  1  0  0  0
 59 60  2  0  0  0
 59 64  1  0  0  0
 60 61  1  0  0  0
 61 62  2  0  0  0
 62 63  1  0  0  0
 63 64  2  0  0  0
  1  2  1  0  0  0
  1  5  1  0  0  0
  4  5  1  0  0  0
  5  7  1  0  0  0
  8  7  1  0  0  0
  8  9  1  0  0  0
  7 29  1  0  0  0
 29 30  1  0  0  0
 30 31  2  0  0  0
 30 35  1  0  0  0
 31 32  1  0  0  0
 32 33  2  0  0  0
 33 34  1  0  0  0
 34 35  2  0  0  0
 13 12  1  0  0  0
 13 14  1  0  0  0
 12  9  1  0  0  0
 12 26  1  0  0  0
  9 10  2  0  0  0
 26 27  1  0  0  0
 26 28  1  0  0  0
 14 15  2  0  0  0
 14 16  1  0  0  0
 16 17  1  0  0  0
 16 19  1  0  0  0
 19 20  1  0  0  0
 20 21  1  0  0  0
 20 22  2  0  0  0
 21 23  2  0  0  0
 22 24  1  0  0  0
 23 25  1  0  0  0
 24 25  2  0  0  0
 46 47  1  0  0  0
 39 40  1  0  0  0
  2  3  1  0  0  0
  4  6  1  0  0  0
  8 11  1  0  0  0
 13 18  1  0  0  0
M  END
> <minimizedAffinity>
-11.32887

$$$$
1HVI_A77_A_800


 64 67  0  0  0  0  0  0  0  0999 V2000
    5.4228   -1.0259   16.2080 C   0  0  0  0  0  0  0  0  0  0  0  0
    5.3019   -0.8618   17.6129 O   0  0  0  0  0  0  0  0  0  0  0  0
    4.4090   -1.1174   17.8927 H   0  0  0  0  0  0  0  0  0  0  0  0
    3.2283   -0.4799   15.3060 O   0  0  0  0  0  0  0  0  0  0  0  0
    4.5813   -0.0275   15.3651 C   0  0  0  0  0  0  0  0  0  0  0  0
    2.9076   -0.6585   16.2038 H   0  0  0  0  0  0  0  0  0  0  0  0
    5.0826    0.2536   13.9369 C   0  0  0  0  0  0  0  0  0  0  0  0
    4.1740    1.1169   13.1578 N   0  0  0  0  0  0  0  0  0  0  0  0
    3.2454    0.6710   12.3039 C   0  0  0  0  0  0  0  0  0  0  0  0
    3.0218   -0.5116   12.1394 O   0  0  0  0  0  0  0  0  0  0  0  0
    4.2572    2.0909   13.2747 H   0  0  0  0  0  0  0  0  0  0  0  0
    2.4309    1.7461   11.5573 C   0  0  0  0  0  0  0  0  0  0  0  0
    3.2097    2.4047   10.5234 N   0  0  0  0  0  0  0  0  0  0  0  0
    3.6136    3.6717   10.6172 C   0  0  0  0  0  0  0  0  0  0  0  0
    3.2752    4.3901   11.5468 O   0  0  0  0  0  0  0  0  0  0  0  0
    4.3830    4.1262    9.5934 N   0  0  0  0  0  0  0  0  0  0  0  0
    4.7736    3.2599    8.4705 C   0  0  0  0  0  0  0  0  0  0  0  0
    3.4499    1.8927    9.7176 H   0  0  0  0  0  0  0  0  0  0  0  0
    4.9130    5.5055    9.6011 C   0  0  0  0  0  0  0  0  0  0  0  0
    6.2294    5.5887   10.3387 C   0  0  0  0  0  0  0  0  0  0  0  0
    7.4338    5.5842    9.6317 C   0  0  0  0  0  0  0  0  0  0  0  0
    6.1703    5.6468   11.6848 N   0  0  0  0  0  0  0  0  0  0  0  0
    8.6332    5.6423   10.3416 C   0  0  0  0  0  0  0  0  0  0  0  0
    7.3308    5.6845   12.3578 C   0  0  0  0  0  0  0  0  0  0  0  0
    8.5841    5.6924   11.7352 C   0  0  0  0  0  0  0  0  0  0  0  0
    1.1260    1.1583   10.9736 C   0  0  0  0  0  0  0  0  0  0  0  0
    0.1066    0.8644   12.0856 C   0  0  0  0  0  0  0  0  0  0  0  0
    0.4778    2.1002    9.9618 C   0  0  0  0  0  0  0  0  0  0  0  0
    6.4848    0.8921   13.9491 C   0  0  0  0  0  0  0  0  0  0  0  0
    7.1643    0.9365   12.5892 C   0  0  0  0  0  0  0  0  0  0  0  0
    6.9998    2.0461   11.7417 C   0  0  0  0  0  0  0  0  0  0  0  0
    7.5896    2.0531   10.4677 C   0  0  0  0  0  0  0  0  0  0  0  0
    8.3569    0.9676   10.0213 C   0  0  0  0  0  0  0  0  0  0  0  0
    8.5425   -0.1300   10.8646 C   0  0  0  0  0  0  0  0  0  0  0  0
    7.9466   -0.1443   12.1388 C   0  0  0  0  0  0  0  0  0  0  0  0
    5.2275   -2.5142   15.9054 C   0  0  0  0  0  0  0  0  0  0  0  0
    7.0082   -4.2558   15.6766 C   0  0  0  0  0  0  0  0  0  0  0  0
    6.7193   -4.4955   14.5162 O   0  0  0  0  0  0  0  0  0  0  0  0
    6.4023   -3.2946   16.3862 N   0  0  0  0  0  0  0  0  0  0  0  0
    6.7555   -3.0909   17.2823 H   0  0  0  0  0  0  0  0  0  0  0  0
    8.0491   -5.0718   16.4425 C   0  0  0  0  0  0  0  0  0  0  0  0
    7.0100   -6.6380   18.0458 C   0  0  0  0  0  0  0  0  0  0  0  0
    7.1676   -5.8653   18.9683 O   0  0  0  0  0  0  0  0  0  0  0  0
    6.3490   -7.8021   18.2048 N   0  0  0  0  0  0  0  0  0  0  0  0
    6.1348   -8.7465   17.1024 C   0  0  0  0  0  0  0  0  0  0  0  0
    7.4750   -6.3718   16.8350 N   0  0  0  0  0  0  0  0  0  0  0  0
    7.4349   -7.0841   16.1566 H   0  0  0  0  0  0  0  0  0  0  0  0
    5.8031   -8.1501   19.5197 C   0  0  0  0  0  0  0  0  0  0  0  0
    4.4443   -7.5463   19.8043 C   0  0  0  0  0  0  0  0  0  0  0  0
    3.2977   -8.0881   19.2229 C   0  0  0  0  0  0  0  0  0  0  0  0
    4.4096   -6.5251   20.6635 N   0  0  0  0  0  0  0  0  0  0  0  0
    2.0694   -7.5404   19.5894 C   0  0  0  0  0  0  0  0  0  0  0  0
    3.2311   -6.0046   21.0004 C   0  0  0  0  0  0  0  0  0  0  0  0
    2.0260   -6.4760   20.5009 C   0  0  0  0  0  0  0  0  0  0  0  0
    9.3481   -5.2660   15.6340 C   0  0  0  0  0  0  0  0  0  0  0  0
   10.0127   -3.9270   15.2643 C   0  0  0  0  0  0  0  0  0  0  0  0
   10.3482   -6.1637   16.3749 C   0  0  0  0  0  0  0  0  0  0  0  0
    3.9916   -2.9929   16.6855 C   0  0  0  0  0  0  0  0  0  0  0  0
    3.2755   -4.1486   16.0697 C   0  0  0  0  0  0  0  0  0  0  0  0
    3.5198   -5.4450   16.5125 C   0  0  0  0  0  0  0  0  0  0  0  0
    2.8587   -6.5183   15.9070 C   0  0  0  0  0  0  0  0  0  0  0  0
    1.9493   -6.2900   14.8768 C   0  0  0  0  0  0  0  0  0  0  0  0
    1.7048   -4.9748   14.4553 C   0  0  0  0  0  0  0  0  0  0  0  0
    2.3722   -3.9021   15.0483 C   0  0  0  0  0  0  0  0  0  0  0  0
 42 43  2  0  0  0
 42 44  1  0  0  0
 42 46  1  0  0  0
 44 45  1  0  0  0
 44 48  1  0  0  0
 48 49  1  0  0  0
 49 50  1  0  0  0
 49 51  2  0  0  0
 50 52  2  0  0  0
 51 53  1  0  0  0
 52 54  1  0  0  0
 53 54  2  0  0  0
 46 41  1  0  0  0
 41 37  1  0  0  0
 41 55  1  0  0  0
 37 38  2  0  0  0
 37 39  1  0  0  0
 55 56  1  0  0  0
 55 57  1  0  0  0
 39 36  1  0  0  0
 36 58  1  0  0  0
 36  1  1  0  0  0
 58 59  1  0  0  0
 59 60  2  0  0  0
 59 64  1  0  0  0
 60 61  1  0  0  0
 61 62  2  0  0  0
 62 63  1  0  0  0
 63 64  2  0  0  0
  1  2  1  0  0  0
  1  5  1  0  0  0
  4  5  1  0  0  0
  5  7  1  0  0  0
  8  7  1  0  0  0
  8  9  1  0  0  0
  7 29  1  0  0  0
 29 30  1  0  0  0
 30 31  2  0  0  0
 30 35  1  0  0  0
 31 32  1  0  0  0
 32 33  2  0  0  0
 33 34  1  0  0  0
 34 35  2  0  0  0
 13 12  1  0  0  0
 13 14  1  0  0  0
 12  9  1  0  0  0
 12 26  1  0  0  0
  9 10  2  0  0  0
 26 27  1  0  0  0
 26 28  1  0  0  0
 14 15  2  0  0  0
 14 16  1  0  0  0
 16 17  1  0  0  0
 16 19  1  0  0  0
 19 20  1  0  0  0
 20 21  1  0  0  0
 20 22  2  0  0  0
 21 23  2  0  0  0
 22 24  1  0  0  0
 23 25  1  0  0  0
 24 25  2  0  0  0
 46 47  1  0  0  0
 39 40  1  0  0  0
  2  3  1  0  0  0
  4  6  1  0  0  0
  8 11  1  0  0  0
 13 18  1  0  0  0
M  END
> <minimizedAffinity>
-10.92446

$$$$
1HVI_A77_A_800


 64 67  0  0  0  0  0  0  0  0999 V2000
    6.4733   -0.1691   15.2811 C   0  0  0  0  0  0  0  0  0  0  0  0
    7.6453   -0.9191   15.5625 O   0  0  0  0  0  0  0  0  0  0  0  0
    7.5867   -1.7852   15.1296 H   0  0  0  0  0  0  0  0  0  0  0  0
    5.2182   -0.4447   17.3490 O   0  0  0  0  0  0  0  0  0  0  0  0
    5.1800   -0.7153   15.9475 C   0  0  0  0  0  0  0  0  0  0  0  0
    5.4089    0.4956   17.4916 H   0  0  0  0  0  0  0  0  0  0  0  0
    4.8770   -2.2089   15.7299 C   0  0  0  0  0  0  0  0  0  0  0  0
    5.9274   -3.1014   16.2571 N   0  0  0  0  0  0  0  0  0  0  0  0
    6.6143   -3.9853   15.5240 C   0  0  0  0  0  0  0  0  0  0  0  0
    6.4741   -4.0878   14.3218 O   0  0  0  0  0  0  0  0  0  0  0  0
    6.1378   -3.0423   17.2170 H   0  0  0  0  0  0  0  0  0  0  0  0
    7.6386   -4.8527   16.2823 C   0  0  0  0  0  0  0  0  0  0  0  0
    7.0848   -6.1356   16.6780 N   0  0  0  0  0  0  0  0  0  0  0  0
    6.7750   -6.4327   17.9402 C   0  0  0  0  0  0  0  0  0  0  0  0
    7.0226   -5.6693   18.8625 O   0  0  0  0  0  0  0  0  0  0  0  0
    6.2123   -7.6532   18.1413 N   0  0  0  0  0  0  0  0  0  0  0  0
    5.9312   -8.5726   17.0278 C   0  0  0  0  0  0  0  0  0  0  0  0
    6.9313   -6.8161   15.9833 H   0  0  0  0  0  0  0  0  0  0  0  0
    5.8007   -8.0819   19.4941 C   0  0  0  0  0  0  0  0  0  0  0  0
    4.4415   -7.5318   19.8597 C   0  0  0  0  0  0  0  0  0  0  0  0
    3.2860   -8.0821   19.3006 C   0  0  0  0  0  0  0  0  0  0  0  0
    4.4162   -6.4937   20.7202 N   0  0  0  0  0  0  0  0  0  0  0  0
    2.0469   -7.5400   19.6424 C   0  0  0  0  0  0  0  0  0  0  0  0
    3.2198   -5.9691   21.0279 C   0  0  0  0  0  0  0  0  0  0  0  0
    2.0096   -6.4592   20.5240 C   0  0  0  0  0  0  0  0  0  0  0  0
    8.9334   -5.0420   15.4598 C   0  0  0  0  0  0  0  0  0  0  0  0
    9.7686   -3.7519   15.4397 C   0  0  0  0  0  0  0  0  0  0  0  0
    9.8015   -6.1699   16.0125 C   0  0  0  0  0  0  0  0  0  0  0  0
    3.5273   -2.6058   16.3583 C   0  0  0  0  0  0  0  0  0  0  0  0
    2.9821   -3.9420   15.8783 C   0  0  0  0  0  0  0  0  0  0  0  0
    2.1346   -4.0097   14.7587 C   0  0  0  0  0  0  0  0  0  0  0  0
    1.5960   -5.2422   14.3562 C   0  0  0  0  0  0  0  0  0  0  0  0
    1.8974   -6.4230   15.0500 C   0  0  0  0  0  0  0  0  0  0  0  0
    2.7548   -6.3680   16.1510 C   0  0  0  0  0  0  0  0  0  0  0  0
    3.2902   -5.1338   16.5622 C   0  0  0  0  0  0  0  0  0  0  0  0
    6.4253    0.0485   13.7661 C   0  0  0  0  0  0  0  0  0  0  0  0
    4.2988    0.1210   12.4513 C   0  0  0  0  0  0  0  0  0  0  0  0
    4.5034   -0.9635   11.9323 O   0  0  0  0  0  0  0  0  0  0  0  0
    5.1170    0.6442   13.3739 N   0  0  0  0  0  0  0  0  0  0  0  0
    4.8361    1.4750   13.8213 H   0  0  0  0  0  0  0  0  0  0  0  0
    3.1189    1.0063   12.0509 C   0  0  0  0  0  0  0  0  0  0  0  0
    3.4911    3.1273   10.8402 C   0  0  0  0  0  0  0  0  0  0  0  0
    3.0636    3.7818   11.7685 O   0  0  0  0  0  0  0  0  0  0  0  0
    4.0113    3.7135    9.7434 N   0  0  0  0  0  0  0  0  0  0  0  0
    4.5457    2.9440    8.6140 C   0  0  0  0  0  0  0  0  0  0  0  0
    3.4731    1.8036   10.8625 N   0  0  0  0  0  0  0  0  0  0  0  0
    3.7103    1.3233   10.0365 H   0  0  0  0  0  0  0  0  0  0  0  0
    4.0670    5.1758    9.6624 C   0  0  0  0  0  0  0  0  0  0  0  0
    3.2808    5.7613    8.5087 C   0  0  0  0  0  0  0  0  0  0  0  0
    1.8922    5.6333    8.4664 C   0  0  0  0  0  0  0  0  0  0  0  0
    3.9764    6.4336    7.5885 N   0  0  0  0  0  0  0  0  0  0  0  0
    1.2187    6.2654    7.4224 C   0  0  0  0  0  0  0  0  0  0  0  0
    3.3231    7.0268    6.5913 C   0  0  0  0  0  0  0  0  0  0  0  0
    1.9429    6.9833    6.4602 C   0  0  0  0  0  0  0  0  0  0  0  0
    1.8346    0.1892   11.8022 C   0  0  0  0  0  0  0  0  0  0  0  0
    1.2954   -0.4594   13.0905 C   0  0  0  0  0  0  0  0  0  0  0  0
    0.7406    1.0394   11.1426 C   0  0  0  0  0  0  0  0  0  0  0  0
    7.5301    1.0545   13.4019 C   0  0  0  0  0  0  0  0  0  0  0  0
    7.8590    1.1186   11.9475 C   0  0  0  0  0  0  0  0  0  0  0  0
    7.5316    2.2463   11.2007 C   0  0  0  0  0  0  0  0  0  0  0  0
    7.8246    2.2790    9.8337 C   0  0  0  0  0  0  0  0  0  0  0  0
    8.4544    1.1953    9.2259 C   0  0  0  0  0  0  0  0  0  0  0  0
    8.7908    0.0744    9.9988 C   0  0  0  0  0  0  0  0  0  0  0  0
    8.4884    0.0326   11.3606 C   0  0  0  0  0  0  0  0  0  0  0  0
 42 43  2  0  0  0
 42 44  1  0  0  0
 42 46  1  0  0  0
 44 45  1  0  0  0
 44 48  1  0  0  0
 48 49  1  0  0  0
 49 50  1  0  0  0
 49 51  2  0  0  0
 50 52  2  0  0  0
 51 53  1  0  0  0
 52 54  1  0  0  0
 53 54  2  0  0  0
 46 41  1  0  0  0
 41 37  1  0  0  0
 41 55  1  0  0  0
 37 38  2  0  0  0
 37 39  1  0  0  0
 55 56  1  0  0  0
 55 57  1  0  0  0
 39 36  1  0  0  0
 36 58  1  0  0  0
 36  1  1  0  0  0
 58 59  1  0  0  0
 59 60  2  0  0  0
 59 64  1  0  0  0
 60 61  1  0  0  0
 61 62  2  0  0  0
 62 63  1  0  0  0
 63 64  2  0  0  0
  1  2  1  0  0  0
  1  5  1  0  0  0
  4  5  1  0  0  0
  5  7  1  0  0  0
  8  7  1  0  0  0
  8  9  1  0  0  0
  7 29  1  0  0  0
 29 30  1  0  0  0
 30 31  2  0  0  0
 30 35  1  0  0  0
 31 32  1  0  0  0
 32 33  2  0  0  0
 33 34  1  0  0  0
 34 35  2  0  0  0
 13 12  1  0  0  0
 13 14  1  0  0  0
 12  9  1  0  0  0
 12 26  1  0  0  0
  9 10  2  0  0  0
 26 27  1  0  0  0
 26 28  1  0  0  0
 14 15  2  0  0  0
 14 16  1  0  0  0
 16 17  1  0  0  0
 16 19  1  0  0  0
 19 20  1  0  0  0
 20 21  1  0  0  0
 20 22  2  0  0  0
 21 23  2  0  0  0
 22 24  1  0  0  0
 23 25  1  0  0  0
 24 25  2  0  0  0
 46 47  1  0  0  0
 39 40  1  0  0  0
  2  3  1  0  0  0
  4  6  1  0  0  0
  8 11  1  0  0  0
 13 18  1  0  0  0
M  END
> <minimizedAffinity>
-10.52498

$$$$
1HVI_A77_A_800


 64 67  0  0  0  0  0  0  0  0999 V2000
    4.0851   -1.5625   16.0906 C   0  0  0  0  0  0  0  0  0  0  0  0
    2.9585   -1.3067   15.2656 O   0  0  0  0  0  0  0  0  0  0  0  0
    3.1623   -1.5611   14.3520 H   0  0  0  0  0  0  0  0  0  0  0  0
    5.1294    0.5958   16.5131 O   0  0  0  0  0  0  0  0  0  0  0  0
    5.3070   -0.6406   15.8214 C   0  0  0  0  0  0  0  0  0  0  0  0
    4.9238    0.4187   17.4444 H   0  0  0  0  0  0  0  0  0  0  0  0
    5.6328   -0.3509   14.3450 C   0  0  0  0  0  0  0  0  0  0  0  0
    4.6181    0.4858   13.6756 N   0  0  0  0  0  0  0  0  0  0  0  0
    3.8602    0.0874   12.6473 C   0  0  0  0  0  0  0  0  0  0  0  0
    3.8980   -1.0437   12.2063 O   0  0  0  0  0  0  0  0  0  0  0  0
    4.4895    1.4030   14.0096 H   0  0  0  0  0  0  0  0  0  0  0  0
    2.8911    1.1361   12.0660 C   0  0  0  0  0  0  0  0  0  0  0  0
    3.4958    1.9069   10.9939 N   0  0  0  0  0  0  0  0  0  0  0  0
    3.7193    3.2183   11.0814 C   0  0  0  0  0  0  0  0  0  0  0  0
    3.3449    3.8742   12.0429 O   0  0  0  0  0  0  0  0  0  0  0  0
    4.3446    3.7857   10.0168 N   0  0  0  0  0  0  0  0  0  0  0  0
    4.7788    2.9922    8.8566 C   0  0  0  0  0  0  0  0  0  0  0  0
    3.7521    1.4403   10.1658 H   0  0  0  0  0  0  0  0  0  0  0  0
    4.6707    5.2270   10.0119 C   0  0  0  0  0  0  0  0  0  0  0  0
    6.0728    5.4792   10.5162 C   0  0  0  0  0  0  0  0  0  0  0  0
    7.1310    5.6151    9.6149 C   0  0  0  0  0  0  0  0  0  0  0  0
    6.2363    5.5440   11.8533 N   0  0  0  0  0  0  0  0  0  0  0  0
    8.4171    5.8277   10.1115 C   0  0  0  0  0  0  0  0  0  0  0  0
    7.4807    5.7312   12.3199 C   0  0  0  0  0  0  0  0  0  0  0  0
    8.5995    5.8863   11.4936 C   0  0  0  0  0  0  0  0  0  0  0  0
    1.5709    0.4829   11.5977 C   0  0  0  0  0  0  0  0  0  0  0  0
    0.7035    0.0692   12.7971 C   0  0  0  0  0  0  0  0  0  0  0  0
    0.7532    1.4195   10.7114 C   0  0  0  0  0  0  0  0  0  0  0  0
    7.0097    0.3243   14.1955 C   0  0  0  0  0  0  0  0  0  0  0  0
    7.4037    0.6314   12.7590 C   0  0  0  0  0  0  0  0  0  0  0  0
    7.9082   -0.3796   11.9225 C   0  0  0  0  0  0  0  0  0  0  0  0
    8.3171   -0.0733   10.6148 C   0  0  0  0  0  0  0  0  0  0  0  0
    8.2222    1.2339   10.1161 C   0  0  0  0  0  0  0  0  0  0  0  0
    7.7030    2.2404   10.9334 C   0  0  0  0  0  0  0  0  0  0  0  0
    7.2996    1.9390   12.2469 C   0  0  0  0  0  0  0  0  0  0  0  0
    4.3427   -3.0715   16.0537 C   0  0  0  0  0  0  0  0  0  0  0  0
    6.6098   -4.1280   16.0485 C   0  0  0  0  0  0  0  0  0  0  0  0
    6.4955   -4.5272   14.9018 O   0  0  0  0  0  0  0  0  0  0  0  0
    5.6739   -3.3801   16.6478 N   0  0  0  0  0  0  0  0  0  0  0  0
    5.8787   -3.0108   17.5371 H   0  0  0  0  0  0  0  0  0  0  0  0
    7.8075   -4.4959   16.9238 C   0  0  0  0  0  0  0  0  0  0  0  0
    6.9465   -6.4091   18.2282 C   0  0  0  0  0  0  0  0  0  0  0  0
    6.3214   -5.6781   18.9683 O   0  0  0  0  0  0  0  0  0  0  0  0
    6.8590   -7.7511   18.3219 N   0  0  0  0  0  0  0  0  0  0  0  0
    7.5949   -8.6554   17.4309 C   0  0  0  0  0  0  0  0  0  0  0  0
    7.7412   -5.9232   17.2873 N   0  0  0  0  0  0  0  0  0  0  0  0
    8.3222   -6.5523   16.8015 H   0  0  0  0  0  0  0  0  0  0  0  0
    5.9893   -8.3500   19.3382 C   0  0  0  0  0  0  0  0  0  0  0  0
    5.8758   -9.8567   19.2445 C   0  0  0  0  0  0  0  0  0  0  0  0
    4.8953  -10.4400   18.4416 C   0  0  0  0  0  0  0  0  0  0  0  0
    6.7812  -10.5697   19.9185 N   0  0  0  0  0  0  0  0  0  0  0  0
    4.8954  -11.8296   18.3319 C   0  0  0  0  0  0  0  0  0  0  0  0
    6.7670  -11.8970   19.8125 C   0  0  0  0  0  0  0  0  0  0  0  0
    5.8518  -12.5828   19.0276 C   0  0  0  0  0  0  0  0  0  0  0  0
    9.1512   -4.1636   16.2433 C   0  0  0  0  0  0  0  0  0  0  0  0
    9.2439   -2.6853   15.8225 C   0  0  0  0  0  0  0  0  0  0  0  0
   10.3446   -4.5337   17.1342 C   0  0  0  0  0  0  0  0  0  0  0  0
    3.2699   -3.7515   16.9208 C   0  0  0  0  0  0  0  0  0  0  0  0
    3.1492   -5.2255   16.7200 C   0  0  0  0  0  0  0  0  0  0  0  0
    3.0159   -6.0762   17.8131 C   0  0  0  0  0  0  0  0  0  0  0  0
    2.9294   -7.4569   17.6080 C   0  0  0  0  0  0  0  0  0  0  0  0
    2.9611   -7.9766   16.3160 C   0  0  0  0  0  0  0  0  0  0  0  0
    3.0799   -7.1017   15.2263 C   0  0  0  0  0  0  0  0  0  0  0  0
    3.1795   -5.7243   15.4276 C   0  0  0  0  0  0  0  0  0  0  0  0
 42 43  2  0  0  0
 42 44  1  0  0  0
 42 46  1  0  0  0
 44 45  1  0  0  0
 44 48  1  0  0  0
 48 49  1  0  0  0
 49 50  1  0  0  0
 49 51  2  0  0  0
 50 52  2  0  0  0
 51 53  1  0  0  0
 52 54  1  0  0  0
 53 54  2  0  0  0
 46 41  1  0  0  0
 41 37  1  0  0  0
 41 55  1  0  0  0
 37 38  2  0  0  0
 37 39  1  0  0  0
 55 56  1  0  0  0
 55 57  1  0  0  0
 39 36  1  0  0  0
 36 58  1  0  0  0
 36  1  1  0  0  0
 58 59  1  0  0  0
 59 60  2  0  0  0
 59 64  1  0  0  0
 60 61  1  0  0  0
 61 62  2  0  0  0
 62 63  1  0  0  0
 63 64  2  0  0  0
  1  2  1  0  0  0
  1  5  1  0  0  0
  4  5  1  0  0  0
  5  7  1  0  0  0
  8  7  1  0  0  0
  8  9  1  0  0  0
  7 29  1  0  0  0
 29 30  1  0  0  0
 30 31  2  0  0  0
 30 35  1  0  0  0
 31 32  1  0  0  0
 32 33  2  0  0  0
 33 34  1  0  0  0
 34 35  2  0  0  0
 13 12  1  0  0  0
 13 14  1  0  0  0
 12  9  1  0  0  0
 12 26  1  0  0  0
  9 10  2  0  0  0
 26 27  1  0  0  0
 26 28  1  0  0  0
 14 15  2  0  0  0
 14 16  1  0  0  0
 16 17  1  0  0  0
 16 19  1  0  0  0
 19 20  1  0  0  0
 20 21  1  0  0  0
 20 22  2  0  0  0
 21 23  2  0  0  0
 22 24  1  0  0  0
 23 25  1  0  0  0
 24 25  2  0  0  0
 46 47  1  0  0  0
 39 40  1  0  0  0
  2  3  1  0  0  0
  4  6  1  0  0  0
  8 11  1  0  0  0
 13 18  1  0  0  0
M  END
> <minimizedAffinity>
-10.14334

$$$$
1HVI_A77_A_800


 64 67  0  0  0  0  0  0  0  0999 V2000
    5.9561   -0.8376   15.8280 C   0  0  0  0  0  0  0  0  0  0  0  0
    5.0964   -0.2845   16.8132 O   0  0  0  0  0  0  0  0  0  0  0  0
    4.1797   -0.3177   16.4978 H   0  0  0  0  0  0  0  0  0  0  0  0
    6.9367    1.1311   14.7840 O   0  0  0  0  0  0  0  0  0  0  0  0
    6.0868    0.0115   14.5330 C   0  0  0  0  0  0  0  0  0  0  0  0
    7.7672    0.8242   15.1802 H   0  0  0  0  0  0  0  0  0  0  0  0
    4.7717    0.5069   13.9044 C   0  0  0  0  0  0  0  0  0  0  0  0
    4.9615    1.6155   12.9490 N   0  0  0  0  0  0  0  0  0  0  0  0
    5.8050    1.5901   11.9107 C   0  0  0  0  0  0  0  0  0  0  0  0
    6.4563    0.6066   11.6207 O   0  0  0  0  0  0  0  0  0  0  0  0
    4.4292    2.4324   13.0855 H   0  0  0  0  0  0  0  0  0  0  0  0
    5.8819    2.8742   11.0611 C   0  0  0  0  0  0  0  0  0  0  0  0
    4.5711    3.3237   10.6265 N   0  0  0  0  0  0  0  0  0  0  0  0
    4.2069    3.3630    9.3446 C   0  0  0  0  0  0  0  0  0  0  0  0
    4.9908    3.1049    8.4427 O   0  0  0  0  0  0  0  0  0  0  0  0
    2.9278    3.7529    9.1031 N   0  0  0  0  0  0  0  0  0  0  0  0
    1.9947    4.0765   10.1935 C   0  0  0  0  0  0  0  0  0  0  0  0
    3.9227    3.6122   11.3088 H   0  0  0  0  0  0  0  0  0  0  0  0
    2.4022    3.8076    7.7232 C   0  0  0  0  0  0  0  0  0  0  0  0
    1.9285    5.1975    7.3658 C   0  0  0  0  0  0  0  0  0  0  0  0
    2.8174    6.2743    7.3997 C   0  0  0  0  0  0  0  0  0  0  0  0
    0.6268    5.3319    7.0398 N   0  0  0  0  0  0  0  0  0  0  0  0
    2.3458    7.5485    7.0835 C   0  0  0  0  0  0  0  0  0  0  0  0
    0.1806    6.5651    6.7548 C   0  0  0  0  0  0  0  0  0  0  0  0
    0.9984    7.7008    6.7547 C   0  0  0  0  0  0  0  0  0  0  0  0
    6.6296    4.0003   11.8107 C   0  0  0  0  0  0  0  0  0  0  0  0
    7.8488    4.4827   11.0088 C   0  0  0  0  0  0  0  0  0  0  0  0
    5.7271    5.2009   12.0851 C   0  0  0  0  0  0  0  0  0  0  0  0
    4.0225   -0.6372   13.1944 C   0  0  0  0  0  0  0  0  0  0  0  0
    2.5711   -0.3249   12.8643 C   0  0  0  0  0  0  0  0  0  0  0  0
    1.5668   -0.4744   13.8366 C   0  0  0  0  0  0  0  0  0  0  0  0
    0.2240   -0.2329   13.5055 C   0  0  0  0  0  0  0  0  0  0  0  0
   -0.1397    0.1688   12.2121 C   0  0  0  0  0  0  0  0  0  0  0  0
    0.8537    0.3397   11.2456 C   0  0  0  0  0  0  0  0  0  0  0  0
    2.1995    0.0911   11.5713 C   0  0  0  0  0  0  0  0  0  0  0  0
    5.5579   -2.3053   15.6490 C   0  0  0  0  0  0  0  0  0  0  0  0
    7.1510   -4.2312   15.5534 C   0  0  0  0  0  0  0  0  0  0  0  0
    6.9051   -4.4640   14.3818 O   0  0  0  0  0  0  0  0  0  0  0  0
    6.6123   -3.1958   16.2108 N   0  0  0  0  0  0  0  0  0  0  0  0
    6.9334   -3.0114   17.1231 H   0  0  0  0  0  0  0  0  0  0  0  0
    8.0524   -5.1366   16.3924 C   0  0  0  0  0  0  0  0  0  0  0  0
    7.0134   -6.7090   17.9897 C   0  0  0  0  0  0  0  0  0  0  0  0
    7.4402   -6.0901   18.9424 O   0  0  0  0  0  0  0  0  0  0  0  0
    6.1930   -7.7673   18.1453 N   0  0  0  0  0  0  0  0  0  0  0  0
    5.6542   -8.5236   17.0091 C   0  0  0  0  0  0  0  0  0  0  0  0
    7.3284   -6.3704   16.7490 N   0  0  0  0  0  0  0  0  0  0  0  0
    7.0634   -6.9786   16.0216 H   0  0  0  0  0  0  0  0  0  0  0  0
    5.8009   -8.1864   19.4939 C   0  0  0  0  0  0  0  0  0  0  0  0
    4.4177   -7.7291   19.9055 C   0  0  0  0  0  0  0  0  0  0  0  0
    4.2140   -6.4267   20.3623 C   0  0  0  0  0  0  0  0  0  0  0  0
    3.4257   -8.6103   19.7578 N   0  0  0  0  0  0  0  0  0  0  0  0
    2.9049   -6.0413   20.6466 C   0  0  0  0  0  0  0  0  0  0  0  0
    2.1801   -8.2335   20.0398 C   0  0  0  0  0  0  0  0  0  0  0  0
    1.8576   -6.9587   20.4813 C   0  0  0  0  0  0  0  0  0  0  0  0
    9.3784   -5.4647   15.6763 C   0  0  0  0  0  0  0  0  0  0  0  0
   10.0683   -4.2064   15.1177 C   0  0  0  0  0  0  0  0  0  0  0  0
   10.3423   -6.2317   16.5914 C   0  0  0  0  0  0  0  0  0  0  0  0
    4.2656   -2.5413   16.4486 C   0  0  0  0  0  0  0  0  0  0  0  0
    3.5463   -3.8046   16.1110 C   0  0  0  0  0  0  0  0  0  0  0  0
    3.5811   -4.8890   16.9825 C   0  0  0  0  0  0  0  0  0  0  0  0
    2.9223   -6.0737   16.6385 C   0  0  0  0  0  0  0  0  0  0  0  0
    2.2225   -6.1628   15.4374 C   0  0  0  0  0  0  0  0  0  0  0  0
    2.1858   -5.0538   14.5797 C   0  0  0  0  0  0  0  0  0  0  0  0
    2.8527   -3.8741   14.9134 C   0  0  0  0  0  0  0  0  0  0  0  0
 42 43  2  0  0  0
 42 44  1  0  0  0
 42 46  1  0  0  0
 44 45  1  0  0  0
 44 48  1  0  0  0
 48 49  1  0  0  0
 49 50  1  0  0  0
 49 51  2  0  0  0
 50 52  2  0  0  0
 51 53  1  0  0  0
 52 54  1  0  0  0
 53 54  2  0  0  0
 46 41  1  0  0  0
 41 37  1  0  0  0
 41 55  1  0  0  0
 37 38  2  0  0  0
 37 39  1  0  0  0
 55 56  1  0  0  0
 55 57  1  0  0  0
 39 36  1  0  0  0
 36 58  1  0  0  0
 36  1  1  0  0  0
 58 59  1  0  0  0
 59 60  2  0  0  0
 59 64  1  0  0  0
 60 61  1  0  0  0
 61 62  2  0  0  0
 62 63  1  0  0  0
 63 64  2  0  0  0
  1  2  1  0  0  0
  1  5  1  0  0  0
  4  5  1  0  0  0
  5  7  1  0  0  0
  8  7  1  0  0  0
  8  9  1  0  0  0
  7 29  1  0  0  0
 29 30  1  0  0  0
 30 31  2  0  0  0
 30 35  1  0  0  0
 31 32  1  0  0  0
 32 33  2  0  0  0
 33 34  1  0  0  0
 34 35  2  0  0  0
 13 12  1  0  0  0
 13 14  1  0  0  0
 12  9  1  0  0  0
 12 26  1  0  0  0
  9 10  2  0  0  0
 26 27  1  0  0  0
 26 28  1  0  0  0
 14 15  2  0  0  0
 14 16  1  0  0  0
 16 17  1  0  0  0
 16 19  1  0  0  0
 19 20  1  0  0  0
 20 21  1  0  0  0
 20 22  2  0  0  0
 21 23  2  0  0  0
 22 24  1  0  0  0
 23 25  1  0  0  0
 24 25  2  0  0  0
 46 47  1  0  0  0
 39 40  1  0  0  0
  2  3  1  0  0  0
  4  6  1  0  0  0
  8 11  1  0  0  0
 13 18  1  0  0  0
M  END
> <minimizedAffinity>
-9.83943

$$$$
1HVI_A77_A_800


 64 67  0  0  0  0  0  0  0  0999 V2000
    6.0460   -0.7101   15.7226 C   0  0  0  0  0  0  0  0  0  0  0  0
    5.0312   -0.0489   16.4631 O   0  0  0  0  0  0  0  0  0  0  0  0
    4.1965   -0.0840   15.9704 H   0  0  0  0  0  0  0  0  0  0  0  0
    7.4904    0.9738   14.7200 O   0  0  0  0  0  0  0  0  0  0  0  0
    6.4736    0.0180   14.4179 C   0  0  0  0  0  0  0  0  0  0  0  0
    8.2000    0.5434   15.2221 H   0  0  0  0  0  0  0  0  0  0  0  0
    5.3519    0.7089   13.6214 C   0  0  0  0  0  0  0  0  0  0  0  0
    5.8335    1.8172   12.7744 N   0  0  0  0  0  0  0  0  0  0  0  0
    6.5324    1.6636   11.6438 C   0  0  0  0  0  0  0  0  0  0  0  0
    6.7825    0.5724   11.1723 O   0  0  0  0  0  0  0  0  0  0  0  0
    5.6257    2.7356   13.0619 H   0  0  0  0  0  0  0  0  0  0  0  0
    6.9769    2.9578   10.9338 C   0  0  0  0  0  0  0  0  0  0  0  0
    6.2855    3.1566    9.6722 N   0  0  0  0  0  0  0  0  0  0  0  0
    6.9137    3.1723    8.4964 C   0  0  0  0  0  0  0  0  0  0  0  0
    8.1319    3.1082    8.4145 O   0  0  0  0  0  0  0  0  0  0  0  0
    6.1205    3.3116    7.4020 N   0  0  0  0  0  0  0  0  0  0  0  0
    4.6562    3.4032    7.5097 C   0  0  0  0  0  0  0  0  0  0  0  0
    5.3096    3.2855    9.6859 H   0  0  0  0  0  0  0  0  0  0  0  0
    6.7012    3.3143    6.0432 C   0  0  0  0  0  0  0  0  0  0  0  0
    6.8710    1.9101    5.5109 C   0  0  0  0  0  0  0  0  0  0  0  0
    5.7518    1.1176    5.2465 C   0  0  0  0  0  0  0  0  0  0  0  0
    8.1351    1.4763    5.3304 N   0  0  0  0  0  0  0  0  0  0  0  0
    5.9412   -0.1813    4.7743 C   0  0  0  0  0  0  0  0  0  0  0  0
    8.3053    0.2191    4.8927 C   0  0  0  0  0  0  0  0  0  0  0  0
    7.2450   -0.6441    4.5936 C   0  0  0  0  0  0  0  0  0  0  0  0
    6.8100    4.1891   11.8532 C   0  0  0  0  0  0  0  0  0  0  0  0
    8.1000    5.0235   11.8985 C   0  0  0  0  0  0  0  0  0  0  0  0
    5.6671    5.0924   11.3962 C   0  0  0  0  0  0  0  0  0  0  0  0
    4.5898   -0.2965   12.7367 C   0  0  0  0  0  0  0  0  0  0  0  0
    3.0759   -0.2138   12.8566 C   0  0  0  0  0  0  0  0  0  0  0  0
    2.4439   -0.4022   14.0981 C   0  0  0  0  0  0  0  0  0  0  0  0
    1.0430   -0.3749   14.1869 C   0  0  0  0  0  0  0  0  0  0  0  0
    0.2518   -0.1510   13.0511 C   0  0  0  0  0  0  0  0  0  0  0  0
    0.8719    0.0575   11.8173 C   0  0  0  0  0  0  0  0  0  0  0  0
    2.2750    0.0230   11.7227 C   0  0  0  0  0  0  0  0  0  0  0  0
    5.6261   -2.1762   15.5841 C   0  0  0  0  0  0  0  0  0  0  0  0
    7.1566   -4.1528   15.5023 C   0  0  0  0  0  0  0  0  0  0  0  0
    6.8360   -4.4390   14.3609 O   0  0  0  0  0  0  0  0  0  0  0  0
    6.6864   -3.0682   16.1323 N   0  0  0  0  0  0  0  0  0  0  0  0
    7.0654   -2.8463   17.0134 H   0  0  0  0  0  0  0  0  0  0  0  0
    8.0800   -5.0405   16.3362 C   0  0  0  0  0  0  0  0  0  0  0  0
    7.1076   -6.6498   17.9386 C   0  0  0  0  0  0  0  0  0  0  0  0
    7.5527   -6.0388   18.8881 O   0  0  0  0  0  0  0  0  0  0  0  0
    6.3062   -7.7215   18.1016 N   0  0  0  0  0  0  0  0  0  0  0  0
    5.7457   -8.4687   16.9699 C   0  0  0  0  0  0  0  0  0  0  0  0
    7.3829   -6.2892   16.6948 N   0  0  0  0  0  0  0  0  0  0  0  0
    7.1057   -6.8904   15.9662 H   0  0  0  0  0  0  0  0  0  0  0  0
    5.9579   -8.1652   19.4543 C   0  0  0  0  0  0  0  0  0  0  0  0
    4.5759   -7.7439   19.9063 C   0  0  0  0  0  0  0  0  0  0  0  0
    4.3409   -6.4333   20.3230 C   0  0  0  0  0  0  0  0  0  0  0  0
    3.6134   -8.6661   19.8328 N   0  0  0  0  0  0  0  0  0  0  0  0
    3.0305   -6.0859   20.6475 C   0  0  0  0  0  0  0  0  0  0  0  0
    2.3666   -8.3250   20.1527 C   0  0  0  0  0  0  0  0  0  0  0  0
    2.0135   -7.0470   20.5601 C   0  0  0  0  0  0  0  0  0  0  0  0
    9.4092   -5.3407   15.6138 C   0  0  0  0  0  0  0  0  0  0  0  0
   10.0821   -4.0655   15.0734 C   0  0  0  0  0  0  0  0  0  0  0  0
   10.3841   -6.1087   16.5164 C   0  0  0  0  0  0  0  0  0  0  0  0
    4.3553   -2.3812   16.4257 C   0  0  0  0  0  0  0  0  0  0  0  0
    3.6444   -3.6697   16.1763 C   0  0  0  0  0  0  0  0  0  0  0  0
    3.7174   -4.7048   17.1035 C   0  0  0  0  0  0  0  0  0  0  0  0
    3.0658   -5.9143   16.8420 C   0  0  0  0  0  0  0  0  0  0  0  0
    2.3353   -6.0768   15.6671 C   0  0  0  0  0  0  0  0  0  0  0  0
    2.2605   -5.0162   14.7524 C   0  0  0  0  0  0  0  0  0  0  0  0
    2.9200   -3.8122   15.0038 C   0  0  0  0  0  0  0  0  0  0  0  0
 42 43  2  0  0  0
 42 44  1  0  0  0
 42 46  1  0  0  0
 44 45  1  0  0  0
 44 48  1  0  0  0
 48 49  1  0  0  0
 49 50  1  0  0  0
 49 51  2  0  0  0
 50 52  2  0  0  0
 51 53  1  0  0  0
 52 54  1  0  0  0
 53 54  2  0  0  0
 46 41  1  0  0  0
 41 37  1  0  0  0
 41 55  1  0  0  0
 37 38  2  0  0  0
 37 39  1  0  0  0
 55 56  1  0  0  0
 55 57  1  0  0  0
 39 36  1  0  0  0
 36 58  1  0  0  0
 36  1  1  0  0  0
 58 59  1  0  0  0
 59 60  2  0  0  0
 59 64  1  0  0  0
 60 61  1  0  0  0
 61 62  2  0  0  0
 62 63  1  0  0  0
 63 64  2  0  0  0
  1  2  1  0  0  0
  1  5  1  0  0  0
  4  5  1  0  0  0
  5  7  1  0  0  0
  8  7  1  0  0  0
  8  9  1  0  0  0
  7 29  1  0  0  0
 29 30  1  0  0  0
 30 31  2  0  0  0
 30 35  1  0  0  0
 31 32  1  0  0  0
 32 33  2  0  0  0
 33 34  1  0  0  0
 34 35  2  0  0  0
 13 12  1  0  0  0
 13 14  1  0  0  0
 12  9  1  0  0  0
 12 26  1  0  0  0
  9 10  2  0  0  0
 26 27  1  0  0  0
 26 28  1  0  0  0
 14 15  2  0  0  0
 14 16  1  0  0  0
 16 17  1  0  0  0
 16 19  1  0  0  0
 19 20  1  0  0  0
 20 21  1  0  0  0
 20 22  2  0  0  0
 21 23  2  0  0  0
 22 24  1  0  0  0
 23 25  1  0  0  0
 24 25  2  0  0  0
 46 47  1  0  0  0
 39 40  1  0  0  0
  2  3  1  0  0  0
  4  6  1  0  0  0
  8 11  1  0  0  0
 13 18  1  0  0  0
M  END
> <minimizedAffinity>
-9.83772

$$$$
1HVI_A77_A_800


 64 67  0  0  0  0  0  0  0  0999 V2000
    4.4424   -0.6647   15.7603 C   0  0  0  0  0  0  0  0  0  0  0  0
    5.1947    0.1796   16.6185 O   0  0  0  0  0  0  0  0  0  0  0  0
    6.1385   -0.0243   16.5265 H   0  0  0  0  0  0  0  0  0  0  0  0
    3.6571   -2.3256   17.3579 O   0  0  0  0  0  0  0  0  0  0  0  0
    4.4345   -2.1635   16.1712 C   0  0  0  0  0  0  0  0  0  0  0  0
    2.7889   -1.9110   17.2348 H   0  0  0  0  0  0  0  0  0  0  0  0
    5.8102   -2.8239   16.3747 C   0  0  0  0  0  0  0  0  0  0  0  0
    5.7828   -3.9501   17.3280 N   0  0  0  0  0  0  0  0  0  0  0  0
    5.3557   -5.1843   17.0366 C   0  0  0  0  0  0  0  0  0  0  0  0
    5.0047   -5.5086   15.9198 O   0  0  0  0  0  0  0  0  0  0  0  0
    6.1015   -3.7813   18.2440 H   0  0  0  0  0  0  0  0  0  0  0  0
    5.3695   -6.2031   18.1935 C   0  0  0  0  0  0  0  0  0  0  0  0
    4.2427   -7.1173   18.1327 N   0  0  0  0  0  0  0  0  0  0  0  0
    3.8950   -7.9073   19.1489 C   0  0  0  0  0  0  0  0  0  0  0  0
    4.5623   -7.9756   20.1710 O   0  0  0  0  0  0  0  0  0  0  0  0
    2.7828   -8.6643   18.9580 N   0  0  0  0  0  0  0  0  0  0  0  0
    1.9935   -8.5876   17.7190 C   0  0  0  0  0  0  0  0  0  0  0  0
    3.7120   -7.1554   17.3044 H   0  0  0  0  0  0  0  0  0  0  0  0
    2.2844   -9.5574   20.0245 C   0  0  0  0  0  0  0  0  0  0  0  0
    1.3206   -8.8405   20.9415 C   0  0  0  0  0  0  0  0  0  0  0  0
    1.3974   -7.4548   21.0987 C   0  0  0  0  0  0  0  0  0  0  0  0
    0.4199   -9.6030   21.5942 N   0  0  0  0  0  0  0  0  0  0  0  0
    0.5066   -6.8240   21.9673 C   0  0  0  0  0  0  0  0  0  0  0  0
   -0.4203   -8.9873   22.4404 C   0  0  0  0  0  0  0  0  0  0  0  0
   -0.4230   -7.6044   22.6555 C   0  0  0  0  0  0  0  0  0  0  0  0
    6.7056   -6.9785   18.2439 C   0  0  0  0  0  0  0  0  0  0  0  0
    6.7204   -8.1208   17.2158 C   0  0  0  0  0  0  0  0  0  0  0  0
    7.9033   -6.0709   17.9737 C   0  0  0  0  0  0  0  0  0  0  0  0
    6.3991   -3.3183   15.0395 C   0  0  0  0  0  0  0  0  0  0  0  0
    7.8804   -3.6585   15.0964 C   0  0  0  0  0  0  0  0  0  0  0  0
    8.3555   -4.8791   14.5858 C   0  0  0  0  0  0  0  0  0  0  0  0
    9.7172   -5.2043   14.6907 C   0  0  0  0  0  0  0  0  0  0  0  0
   10.6260   -4.3221   15.2925 C   0  0  0  0  0  0  0  0  0  0  0  0
   10.1662   -3.0985   15.7841 C   0  0  0  0  0  0  0  0  0  0  0  0
    8.8011   -2.7723   15.6880 C   0  0  0  0  0  0  0  0  0  0  0  0
    4.8687   -0.3493   14.3238 C   0  0  0  0  0  0  0  0  0  0  0  0
    3.3829    0.2475   12.4022 C   0  0  0  0  0  0  0  0  0  0  0  0
    3.7165   -0.7297   11.7531 O   0  0  0  0  0  0  0  0  0  0  0  0
    3.8252    0.4711   13.6467 N   0  0  0  0  0  0  0  0  0  0  0  0
    3.4361    1.2254   14.1457 H   0  0  0  0  0  0  0  0  0  0  0  0
    2.4745    1.3350   11.8293 C   0  0  0  0  0  0  0  0  0  0  0  0
    3.5203    3.3632   10.8829 C   0  0  0  0  0  0  0  0  0  0  0  0
    3.1124    4.0513   11.7956 O   0  0  0  0  0  0  0  0  0  0  0  0
    4.3329    3.8630    9.9304 N   0  0  0  0  0  0  0  0  0  0  0  0
    4.8491    3.0483    8.8245 C   0  0  0  0  0  0  0  0  0  0  0  0
    3.1917    2.0846   10.7818 N   0  0  0  0  0  0  0  0  0  0  0  0
    3.4410    1.6061    9.9583 H   0  0  0  0  0  0  0  0  0  0  0  0
    4.7394    5.2698    9.9917 C   0  0  0  0  0  0  0  0  0  0  0  0
    6.0941    5.4945   10.6287 C   0  0  0  0  0  0  0  0  0  0  0  0
    6.2280    5.4916   12.0175 C   0  0  0  0  0  0  0  0  0  0  0  0
    7.1306    5.6389    9.7997 N   0  0  0  0  0  0  0  0  0  0  0  0
    7.5135    5.6206   12.5408 C   0  0  0  0  0  0  0  0  0  0  0  0
    8.3531    5.7692   10.3110 C   0  0  0  0  0  0  0  0  0  0  0  0
    8.6071    5.7600   11.6746 C   0  0  0  0  0  0  0  0  0  0  0  0
    1.1496    0.7618   11.2860 C   0  0  0  0  0  0  0  0  0  0  0  0
    0.2291    0.2507   12.4096 C   0  0  0  0  0  0  0  0  0  0  0  0
    0.4036    1.7837   10.4176 C   0  0  0  0  0  0  0  0  0  0  0  0
    6.1573    0.4875   14.3903 C   0  0  0  0  0  0  0  0  0  0  0  0
    6.8632    0.6486   13.0853 C   0  0  0  0  0  0  0  0  0  0  0  0
    7.5430   -0.4237   12.5156 C   0  0  0  0  0  0  0  0  0  0  0  0
    8.2202   -0.2481   11.3046 C   0  0  0  0  0  0  0  0  0  0  0  0
    8.2017    0.9890   10.6645 C   0  0  0  0  0  0  0  0  0  0  0  0
    7.4977    2.0532   11.2466 C   0  0  0  0  0  0  0  0  0  0  0  0
    6.8315    1.8855   12.4614 C   0  0  0  0  0  0  0  0  0  0  0  0
 42 43  2  0  0  0
 42 44  1  0  0  0
 42 46  1  0  0  0
 44 45  1  0  0  0
 44 48  1  0  0  0
 48 49  1  0  0  0
 49 50  1  0  0  0
 49 51  2  0  0  0
 50 52  2  0  0  0
 51 53  1  0  0  0
 52 54  1  0  0  0
 53 54  2  0  0  0
 46 41  1  0  0  0
 41 37  1  0  0  0
 41 55  1  0  0  0
 37 38  2  0  0  0
 37 39  1  0  0  0
 55 56  1  0  0  0
 55 57  1  0  0  0
 39 36  1  0  0  0
 36 58  1  0  0  0
 36  1  1  0  0  0
 58 59  1  0  0  0
 59 60  2  0  0  0
 59 64  1  0  0  0
 60 61  1  0  0  0
 61 62  2  0  0  0
 62 63  1  0  0  0
 63 64  2  0  0  0
  1  2  1  0  0  0
  1  5  1  0  0  0
  4  5  1  0  0  0
  5  7  1  0  0  0
  8  7  1  0  0  0
  8  9  1  0  0  0
  7 29  1  0  0  0
 29 30  1  0  0  0
 30 31  2  0  0  0
 30 35  1  0  0  0
 31 32  1  0  0  0
 32 33  2  0  0  0
 33 34  1  0  0  0
 34 35  2  0  0  0
 13 12  1  0  0  0
 13 14  1  0  0  0
 12  9  1  0  0  0
 12 26  1  0  0  0
  9 10  2  0  0  0
 26 27  1  0  0  0
 26 28  1  0  0  0
 14 15  2  0  0  0
 14 16  1  0  0  0
 16 17  1  0  0  0
 16 19  1  0  0  0
 19 20  1  0  0  0
 20 21  1  0  0  0
 20 22  2  0  0  0
 21 23  2  0  0  0
 22 24  1  0  0  0
 23 25  1  0  0  0
 24 25  2  0  0  0
 46 47  1  0  0  0
 39 40  1  0  0  0
  2  3  1  0  0  0
  4  6  1  0  0  0
  8 11  1  0  0  0
 13 18  1  0  0  0
M  END
> <minimizedAffinity>
-9.45117

$$$$
1HVI_A77_A_800


 64 67  0  0  0  0  0  0  0  0999 V2000
    2.9570   -2.2032   14.1269 C   0  0  0  0  0  0  0  0  0  0  0  0
    1.9072   -3.0738   13.7329 O   0  0  0  0  0  0  0  0  0  0  0  0
    1.0621   -2.7319   14.0641 H   0  0  0  0  0  0  0  0  0  0  0  0
    4.1102   -1.0958   15.9631 O   0  0  0  0  0  0  0  0  0  0  0  0
    3.2510   -2.1933   15.6529 C   0  0  0  0  0  0  0  0  0  0  0  0
    3.7384   -0.2797   15.5935 H   0  0  0  0  0  0  0  0  0  0  0  0
    3.8478   -3.4841   16.2427 C   0  0  0  0  0  0  0  0  0  0  0  0
    5.2448   -3.3299   16.6925 N   0  0  0  0  0  0  0  0  0  0  0  0
    6.3147   -3.7665   16.0179 C   0  0  0  0  0  0  0  0  0  0  0  0
    6.2310   -4.2832   14.9217 O   0  0  0  0  0  0  0  0  0  0  0  0
    5.4008   -2.8731   17.5506 H   0  0  0  0  0  0  0  0  0  0  0  0
    7.6843   -3.5418   16.6891 C   0  0  0  0  0  0  0  0  0  0  0  0
    8.3907   -4.7887   16.9246 N   0  0  0  0  0  0  0  0  0  0  0  0
    7.9309   -5.7394   17.7384 C   0  0  0  0  0  0  0  0  0  0  0  0
    6.9218   -5.5814   18.4103 O   0  0  0  0  0  0  0  0  0  0  0  0
    8.6783   -6.8720   17.8092 N   0  0  0  0  0  0  0  0  0  0  0  0
    9.8998   -7.0487   17.0087 C   0  0  0  0  0  0  0  0  0  0  0  0
    9.2472   -4.9385   16.4629 H   0  0  0  0  0  0  0  0  0  0  0  0
    8.2537   -8.0058   18.6563 C   0  0  0  0  0  0  0  0  0  0  0  0
    7.6772   -9.1305   17.8276 C   0  0  0  0  0  0  0  0  0  0  0  0
    6.4031   -9.0109   17.2682 C   0  0  0  0  0  0  0  0  0  0  0  0
    8.4407  -10.2327   17.6823 N   0  0  0  0  0  0  0  0  0  0  0  0
    5.8903  -10.0739   16.5247 C   0  0  0  0  0  0  0  0  0  0  0  0
    7.9297  -11.2557   16.9799 C   0  0  0  0  0  0  0  0  0  0  0  0
    6.6674  -11.2233   16.3763 C   0  0  0  0  0  0  0  0  0  0  0  0
    8.5561   -2.5606   15.8730 C   0  0  0  0  0  0  0  0  0  0  0  0
    9.5400   -3.3181   14.9672 C   0  0  0  0  0  0  0  0  0  0  0  0
    7.7110   -1.6360   15.0001 C   0  0  0  0  0  0  0  0  0  0  0  0
    3.0023   -4.0071   17.4199 C   0  0  0  0  0  0  0  0  0  0  0  0
    2.9468   -5.5233   17.5256 C   0  0  0  0  0  0  0  0  0  0  0  0
    2.8976   -6.3210   16.3691 C   0  0  0  0  0  0  0  0  0  0  0  0
    2.7943   -7.7168   16.4798 C   0  0  0  0  0  0  0  0  0  0  0  0
    2.7485   -8.3401   17.7351 C   0  0  0  0  0  0  0  0  0  0  0  0
    2.8175   -7.5568   18.8892 C   0  0  0  0  0  0  0  0  0  0  0  0
    2.9132   -6.1574   18.7825 C   0  0  0  0  0  0  0  0  0  0  0  0
    2.6926   -0.8454   13.4702 C   0  0  0  0  0  0  0  0  0  0  0  0
    4.8641    0.2852   12.9576 C   0  0  0  0  0  0  0  0  0  0  0  0
    5.0255    0.6471   14.1110 O   0  0  0  0  0  0  0  0  0  0  0  0
    3.8286   -0.4758   12.5794 N   0  0  0  0  0  0  0  0  0  0  0  0
    3.8173   -0.8123   11.6542 H   0  0  0  0  0  0  0  0  0  0  0  0
    5.7999    0.7178   11.8293 C   0  0  0  0  0  0  0  0  0  0  0  0
    5.5290    2.6333   10.2929 C   0  0  0  0  0  0  0  0  0  0  0  0
    5.8044    1.9523    9.3268 O   0  0  0  0  0  0  0  0  0  0  0  0
    5.1450    3.9191   10.1640 N   0  0  0  0  0  0  0  0  0  0  0  0
    4.7949    4.7587   11.3153 C   0  0  0  0  0  0  0  0  0  0  0  0
    5.5861    2.1437   11.5217 N   0  0  0  0  0  0  0  0  0  0  0  0
    5.4796    2.7689   12.2747 H   0  0  0  0  0  0  0  0  0  0  0  0
    5.0541    4.5164    8.8287 C   0  0  0  0  0  0  0  0  0  0  0  0
    3.6423    4.6185    8.2921 C   0  0  0  0  0  0  0  0  0  0  0  0
    3.0353    3.5141    7.6935 C   0  0  0  0  0  0  0  0  0  0  0  0
    3.0153    5.7836    8.4706 N   0  0  0  0  0  0  0  0  0  0  0  0
    1.7062    3.6470    7.2950 C   0  0  0  0  0  0  0  0  0  0  0  0
    1.7481    5.9015    8.0790 C   0  0  0  0  0  0  0  0  0  0  0  0
    1.0388    4.8643    7.4915 C   0  0  0  0  0  0  0  0  0  0  0  0
    7.2807    0.4430   12.1620 C   0  0  0  0  0  0  0  0  0  0  0  0
    8.0826   -0.0120   10.9287 C   0  0  0  0  0  0  0  0  0  0  0  0
    7.9526    1.6627   12.8068 C   0  0  0  0  0  0  0  0  0  0  0  0
    1.4341   -0.9841   12.5972 C   0  0  0  0  0  0  0  0  0  0  0  0
    0.9965    0.2775   11.9307 C   0  0  0  0  0  0  0  0  0  0  0  0
    0.8483    1.4484   12.6680 C   0  0  0  0  0  0  0  0  0  0  0  0
    0.4131    2.6154   12.0319 C   0  0  0  0  0  0  0  0  0  0  0  0
    0.1441    2.6098   10.6652 C   0  0  0  0  0  0  0  0  0  0  0  0
    0.3147    1.4237    9.9363 C   0  0  0  0  0  0  0  0  0  0  0  0
    0.7364    0.2539   10.5698 C   0  0  0  0  0  0  0  0  0  0  0  0
 42 43  2  0  0  0
 42 44  1  0  0  0
 42 46  1  0  0  0
 44 45  1  0  0  0
 44 48  1  0  0  0
 48 49  1  0  0  0
 49 50  1  0  0  0
 49 51  2  0  0  0
 50 52  2  0  0  0
 51 53  1  0  0  0
 52 54  1  0  0  0
 53 54  2  0  0  0
 46 41  1  0  0  0
 41 37  1  0  0  0
 41 55  1  0  0  0
 37 38  2  0  0  0
 37 39  1  0  0  0
 55 56  1  0  0  0
 55 57  1  0  0  0
 39 36  1  0  0  0
 36 58  1  0  0  0
 36  1  1  0  0  0
 58 59  1  0  0  0
 59 60  2  0  0  0
 59 64  1  0  0  0
 60 61  1  0  0  0
 61 62  2  0  0  0
 62 63  1  0  0  0
 63 64  2  0  0  0
  1  2  1  0  0  0
  1  5  1  0  0  0
  4  5  1  0  0  0
  5  7  1  0  0  0
  8  7  1  0  0  0
  8  9  1  0  0  0
  7 29  1  0  0  0
 29 30  1  0  0  0
 30 31  2  0  0  0
 30 35  1  0  0  0
 31 32  1  0  0  0
 32 33  2  0  0  0
 33 34  1  0  0  0
 34 35  2  0  0  0
 13 12  1  0  0  0
 13 14  1  0  0  0
 12  9  1  0  0  0
 12 26  1  0  0  0
  9 10  2  0  0  0
 26 27  1  0  0  0
 26 28  1  0  0  0
 14 15  2  0  0  0
 14 16  1  0  0  0
 16 17  1  0  0  0
 16 19  1  0  0  0
 19 20  1  0  0  0
 20 21  1  0  0  0
 20 22  2  0  0  0
 21 23  2  0  0  0
 22 24  1  0  0  0
 23 25  1  0  0  0
 24 25  2  0  0  0
 46 47  1  0  0  0
 39 40  1  0  0  0
  2  3  1  0  0  0
  4  6  1  0  0  0
  8 11  1  0  0  0
 13 18  1  0  0  0
M  END
> <minimizedAffinity>
-9.43961

$$$$
1HVI_A77_A_800


 64 67  0  0  0  0  0  0  0  0999 V2000
    5.6839   -0.2726   14.7232 C   0  0  0  0  0  0  0  0  0  0  0  0
    6.6304   -1.1369   14.1130 O   0  0  0  0  0  0  0  0  0  0  0  0
    6.1647   -1.8448   13.6409 H   0  0  0  0  0  0  0  0  0  0  0  0
    5.4062   -0.4086   17.1381 O   0  0  0  0  0  0  0  0  0  0  0  0
    4.8942   -0.9069   15.9019 C   0  0  0  0  0  0  0  0  0  0  0  0
    5.4297    0.5608   17.1111 H   0  0  0  0  0  0  0  0  0  0  0  0
    4.8602   -2.4451   15.9529 C   0  0  0  0  0  0  0  0  0  0  0  0
    6.0471   -3.0350   16.6018 N   0  0  0  0  0  0  0  0  0  0  0  0
    6.7514   -4.0619   16.1121 C   0  0  0  0  0  0  0  0  0  0  0  0
    6.5073   -4.5685   15.0354 O   0  0  0  0  0  0  0  0  0  0  0  0
    6.3419   -2.6449   17.4563 H   0  0  0  0  0  0  0  0  0  0  0  0
    7.9323   -4.5530   16.9730 C   0  0  0  0  0  0  0  0  0  0  0  0
    7.8800   -5.9848   17.2101 N   0  0  0  0  0  0  0  0  0  0  0  0
    7.2100   -6.5268   18.2274 C   0  0  0  0  0  0  0  0  0  0  0  0
    6.6673   -5.8406   19.0815 O   0  0  0  0  0  0  0  0  0  0  0  0
    7.2093   -7.8846   18.2810 N   0  0  0  0  0  0  0  0  0  0  0  0
    7.8776   -8.7032   17.2576 C   0  0  0  0  0  0  0  0  0  0  0  0
    8.3606   -6.5818   16.5922 H   0  0  0  0  0  0  0  0  0  0  0  0
    6.4766   -8.5984   19.3473 C   0  0  0  0  0  0  0  0  0  0  0  0
    4.9822   -8.4258   19.2033 C   0  0  0  0  0  0  0  0  0  0  0  0
    4.3465   -8.7660   18.0072 C   0  0  0  0  0  0  0  0  0  0  0  0
    4.3228   -7.9193   20.2651 N   0  0  0  0  0  0  0  0  0  0  0  0
    2.9688   -8.5770   17.8978 C   0  0  0  0  0  0  0  0  0  0  0  0
    3.0006   -7.7253   20.1421 C   0  0  0  0  0  0  0  0  0  0  0  0
    2.2780   -8.0441   18.9867 C   0  0  0  0  0  0  0  0  0  0  0  0
    9.2880   -4.1468   16.3519 C   0  0  0  0  0  0  0  0  0  0  0  0
    9.6771   -5.0951   15.2065 C   0  0  0  0  0  0  0  0  0  0  0  0
    9.2631   -2.7199   15.8092 C   0  0  0  0  0  0  0  0  0  0  0  0
    3.5966   -2.9557   16.6718 C   0  0  0  0  0  0  0  0  0  0  0  0
    2.7452   -3.9050   15.8429 C   0  0  0  0  0  0  0  0  0  0  0  0
    1.7311   -3.4111   15.0039 C   0  0  0  0  0  0  0  0  0  0  0  0
    0.9177   -4.3000   14.2833 C   0  0  0  0  0  0  0  0  0  0  0  0
    1.1044   -5.6866   14.3764 C   0  0  0  0  0  0  0  0  0  0  0  0
    2.1228   -6.1852   15.1916 C   0  0  0  0  0  0  0  0  0  0  0  0
    2.9348   -5.2982   15.9214 C   0  0  0  0  0  0  0  0  0  0  0  0
    4.8537    0.3576   13.6013 C   0  0  0  0  0  0  0  0  0  0  0  0
    6.3574    1.4449   11.9242 C   0  0  0  0  0  0  0  0  0  0  0  0
    6.5229    2.4363   12.6149 O   0  0  0  0  0  0  0  0  0  0  0  0
    5.6409    0.3908   12.3366 N   0  0  0  0  0  0  0  0  0  0  0  0
    5.6339   -0.4128   11.7679 H   0  0  0  0  0  0  0  0  0  0  0  0
    6.9059    1.3422   10.5012 C   0  0  0  0  0  0  0  0  0  0  0  0
    6.1890    2.7996    8.6398 C   0  0  0  0  0  0  0  0  0  0  0  0
    5.8584    1.8469    7.9646 O   0  0  0  0  0  0  0  0  0  0  0  0
    5.9753    4.0653    8.2276 N   0  0  0  0  0  0  0  0  0  0  0  0
    6.3545    5.2330    9.0312 C   0  0  0  0  0  0  0  0  0  0  0  0
    6.7708    2.6420    9.8186 N   0  0  0  0  0  0  0  0  0  0  0  0
    7.1348    3.4399   10.2658 H   0  0  0  0  0  0  0  0  0  0  0  0
    5.3275    4.3053    6.9350 C   0  0  0  0  0  0  0  0  0  0  0  0
    3.8556    4.6448    7.0349 C   0  0  0  0  0  0  0  0  0  0  0  0
    2.9142    3.6378    7.2499 C   0  0  0  0  0  0  0  0  0  0  0  0
    3.5314    5.9376    6.9589 N   0  0  0  0  0  0  0  0  0  0  0  0
    1.5850    4.0236    7.4158 C   0  0  0  0  0  0  0  0  0  0  0  0
    2.2575    6.2939    7.1110 C   0  0  0  0  0  0  0  0  0  0  0  0
    1.2406    5.3811    7.3494 C   0  0  0  0  0  0  0  0  0  0  0  0
    8.3694    0.8562   10.4740 C   0  0  0  0  0  0  0  0  0  0  0  0
    8.7533    0.0844   11.7500 C   0  0  0  0  0  0  0  0  0  0  0  0
    8.6597    0.0008    9.2335 C   0  0  0  0  0  0  0  0  0  0  0  0
    3.6245   -0.5368   13.3688 C   0  0  0  0  0  0  0  0  0  0  0  0
    2.3820    0.1985   12.9904 C   0  0  0  0  0  0  0  0  0  0  0  0
    2.4554    1.3545   12.2193 C   0  0  0  0  0  0  0  0  0  0  0  0
    1.2831    2.0448   11.8952 C   0  0  0  0  0  0  0  0  0  0  0  0
    0.0476    1.5697   12.3289 C   0  0  0  0  0  0  0  0  0  0  0  0
   -0.0071    0.3941   13.0917 C   0  0  0  0  0  0  0  0  0  0  0  0
    1.1616   -0.2906   13.4281 C   0  0  0  0  0  0  0  0  0  0  0  0
 42 43  2  0  0  0
 42 44  1  0  0  0
 42 46  1  0  0  0
 44 45  1  0  0  0
 44 48  1  0  0  0
 48 49  1  0  0  0
 49 50  1  0  0  0
 49 51  2  0  0  0
 50 52  2  0  0  0
 51 53  1  0  0  0
 52 54  1  0  0  0
 53 54  2  0  0  0
 46 41  1  0  0  0
 41 37  1  0  0  0
 41 55  1  0  0  0
 37 38  2  0  0  0
 37 39  1  0  0  0
 55 56  1  0  0  0
 55 57  1  0  0  0
 39 36  1  0  0  0
 36 58  1  0  0  0
 36  1  1  0  0  0
 58 59  1  0  0  0
 59 60  2  0  0  0
 59 64  1  0  0  0
 60 61  1  0  0  0
 61 62  2  0  0  0
 62 63  1  0  0  0
 63 64  2  0  0  0
  1  2  1  0  0  0
  1  5  1  0  0  0
  4  5  1  0  0  0
  5  7  1  0  0  0
  8  7  1  0  0  0
  8  9  1  0  0  0
  7 29  1  0  0  0
 29 30  1  0  0  0
 30 31  2  0  0  0
 30 35  1  0  0  0
 31 32  1  0  0  0
 32 33  2  0  0  0
 33 34  1  0  0  0
 34 35  2  0  0  0
 13 12  1  0  0  0
 13 14  1  0  0  0
 12  9  1  0  0  0
 12 26  1  0  0  0
  9 10  2  0  0  0
 26 27  1  0  0  0
 26 28  1  0  0  0
 14 15  2  0  0  0
 14 16  1  0  0  0
 16 17  1  0  0  0
 16 19  1  0  0  0
 19 20  1  0  0  0
 20 21  1  0  0  0
 20 22  2  0  0  0
 21 23  2  0  0  0
 22 24  1  0  0  0
 23 25  1  0  0  0
 24 25  2  0  0  0
 46 47  1  0  0  0
 39 40  1  0  0  0
  2  3  1  0  0  0
  4  6  1  0  0  0
  8 11  1  0  0  0
 13 18  1  0  0  0
M  END
> <minimizedAffinity>
-9.35132

$$$$
1HVI_A77_A_800


 64 67  0  0  0  0  0  0  0  0999 V2000
    6.4441   -0.5899   14.4467 C   0  0  0  0  0  0  0  0  0  0  0  0
    5.9160    0.2449   15.4663 O   0  0  0  0  0  0  0  0  0  0  0  0
    5.0966   -0.1437   15.8104 H   0  0  0  0  0  0  0  0  0  0  0  0
    5.9963   -1.7564   12.3572 O   0  0  0  0  0  0  0  0  0  0  0  0
    5.5991   -0.6324   13.1431 C   0  0  0  0  0  0  0  0  0  0  0  0
    5.9784   -2.5566   12.9052 H   0  0  0  0  0  0  0  0  0  0  0  0
    5.6302    0.6328   12.2665 C   0  0  0  0  0  0  0  0  0  0  0  0
    4.3100    1.2763   12.1218 N   0  0  0  0  0  0  0  0  0  0  0  0
    3.2104    0.6647   11.6667 C   0  0  0  0  0  0  0  0  0  0  0  0
    3.1875   -0.5170   11.3864 O   0  0  0  0  0  0  0  0  0  0  0  0
    4.2329    2.2236   12.3784 H   0  0  0  0  0  0  0  0  0  0  0  0
    1.9425    1.5342   11.5524 C   0  0  0  0  0  0  0  0  0  0  0  0
    1.9363    2.3385   10.3432 N   0  0  0  0  0  0  0  0  0  0  0  0
    2.4790    3.5546   10.2792 C   0  0  0  0  0  0  0  0  0  0  0  0
    2.9408    4.1082   11.2667 O   0  0  0  0  0  0  0  0  0  0  0  0
    2.4432    4.1568    9.0616 N   0  0  0  0  0  0  0  0  0  0  0  0
    1.8720    3.4901    7.8811 C   0  0  0  0  0  0  0  0  0  0  0  0
    1.5125    1.9694    9.5349 H   0  0  0  0  0  0  0  0  0  0  0  0
    3.0390    5.4942    8.8621 C   0  0  0  0  0  0  0  0  0  0  0  0
    4.0406    5.4909    7.7304 C   0  0  0  0  0  0  0  0  0  0  0  0
    5.2042    4.7240    7.8227 C   0  0  0  0  0  0  0  0  0  0  0  0
    3.7575    6.2675    6.6648 N   0  0  0  0  0  0  0  0  0  0  0  0
    6.1191    4.7569    6.7702 C   0  0  0  0  0  0  0  0  0  0  0  0
    4.6534    6.3049    5.6663 C   0  0  0  0  0  0  0  0  0  0  0  0
    5.8413    5.5648    5.6671 C   0  0  0  0  0  0  0  0  0  0  0  0
    0.6611    0.6752   11.6490 C   0  0  0  0  0  0  0  0  0  0  0  0
    0.2254    0.4959   13.1119 C   0  0  0  0  0  0  0  0  0  0  0  0
   -0.4997    1.2918   10.8722 C   0  0  0  0  0  0  0  0  0  0  0  0
    6.6305    1.6700   12.8122 C   0  0  0  0  0  0  0  0  0  0  0  0
    7.2308    2.5793   11.7511 C   0  0  0  0  0  0  0  0  0  0  0  0
    7.4397    3.9447   12.0123 C   0  0  0  0  0  0  0  0  0  0  0  0
    7.9462    4.7847   11.0078 C   0  0  0  0  0  0  0  0  0  0  0  0
    8.2612    4.2821    9.7371 C   0  0  0  0  0  0  0  0  0  0  0  0
    8.0760    2.9228    9.4754 C   0  0  0  0  0  0  0  0  0  0  0  0
    7.5614    2.0794   10.4768 C   0  0  0  0  0  0  0  0  0  0  0  0
    6.7801   -1.9377   15.0910 C   0  0  0  0  0  0  0  0  0  0  0  0
    4.5887   -2.9718   15.7112 C   0  0  0  0  0  0  0  0  0  0  0  0
    4.3939   -2.1786   16.6169 O   0  0  0  0  0  0  0  0  0  0  0  0
    5.6526   -2.8932   14.9009 N   0  0  0  0  0  0  0  0  0  0  0  0
    5.6920   -3.5056   14.1311 H   0  0  0  0  0  0  0  0  0  0  0  0
    3.6642   -4.1622   15.4575 C   0  0  0  0  0  0  0  0  0  0  0  0
    4.0509   -6.2492   16.7216 C   0  0  0  0  0  0  0  0  0  0  0  0
    4.4237   -6.8338   15.7255 O   0  0  0  0  0  0  0  0  0  0  0  0
    4.0874   -6.8311   17.9370 N   0  0  0  0  0  0  0  0  0  0  0  0
    3.6542   -6.1408   19.1573 C   0  0  0  0  0  0  0  0  0  0  0  0
    3.5954   -5.0074   16.6636 N   0  0  0  0  0  0  0  0  0  0  0  0
    3.1866   -4.6257   17.4738 H   0  0  0  0  0  0  0  0  0  0  0  0
    4.5892   -8.2019   18.0679 C   0  0  0  0  0  0  0  0  0  0  0  0
    6.0968   -8.3178   17.9953 C   0  0  0  0  0  0  0  0  0  0  0  0
    6.9026   -7.5620   18.8474 C   0  0  0  0  0  0  0  0  0  0  0  0
    6.5895   -9.2025   17.1253 N   0  0  0  0  0  0  0  0  0  0  0  0
    8.2789   -7.7749   18.7892 C   0  0  0  0  0  0  0  0  0  0  0  0
    7.9065   -9.3920   17.0730 C   0  0  0  0  0  0  0  0  0  0  0  0
    8.8009   -8.7119   17.8862 C   0  0  0  0  0  0  0  0  0  0  0  0
    2.2544   -3.7215   15.0137 C   0  0  0  0  0  0  0  0  0  0  0  0
    2.2970   -2.5991   13.9603 C   0  0  0  0  0  0  0  0  0  0  0  0
    1.4292   -4.9045   14.4900 C   0  0  0  0  0  0  0  0  0  0  0  0
    8.0105   -2.5096   14.3668 C   0  0  0  0  0  0  0  0  0  0  0  0
    8.8084   -3.4831   15.1688 C   0  0  0  0  0  0  0  0  0  0  0  0
    8.6919   -4.8500   14.9355 C   0  0  0  0  0  0  0  0  0  0  0  0
    9.4282   -5.7492   15.7134 C   0  0  0  0  0  0  0  0  0  0  0  0
   10.2850   -5.2788   16.7059 C   0  0  0  0  0  0  0  0  0  0  0  0
   10.4007   -3.8968   16.9151 C   0  0  0  0  0  0  0  0  0  0  0  0
    9.6578   -2.9968   16.1496 C   0  0  0  0  0  0  0  0  0  0  0  0
 42 43  2  0  0  0
 42 44  1  0  0  0
 42 46  1  0  0  0
 44 45  1  0  0  0
 44 48  1  0  0  0
 48 49  1  0  0  0
 49 50  1  0  0  0
 49 51  2  0  0  0
 50 52  2  0  0  0
 51 53  1  0  0  0
 52 54  1  0  0  0
 53 54  2  0  0  0
 46 41  1  0  0  0
 41 37  1  0  0  0
 41 55  1  0  0  0
 37 38  2  0  0  0
 37 39  1  0  0  0
 55 56  1  0  0  0
 55 57  1  0  0  0
 39 36  1  0  0  0
 36 58  1  0  0  0
 36  1  1  0  0  0
 58 59  1  0  0  0
 59 60  2  0  0  0
 59 64  1  0  0  0
 60 61  1  0  0  0
 61 62  2  0  0  0
 62 63  1  0  0  0
 63 64  2  0  0  0
  1  2  1  0  0  0
  1  5  1  0  0  0
  4  5  1  0  0  0
  5  7  1  0  0  0
  8  7  1  0  0  0
  8  9  1  0  0  0
  7 29  1  0  0  0
 29 30  1  0  0  0
 30 31  2  0  0  0
 30 35  1  0  0  0
 31 32  1  0  0  0
 32 33  2  0  0  0
 33 34  1  0  0  0
 34 35  2  0  0  0
 13 12  1  0  0  0
 13 14  1  0  0  0
 12  9  1  0  0  0
 12 26  1  0  0  0
  9 10  2  0  0  0
 26 27  1  0  0  0
 26 28  1  0  0  0
 14 15  2  0  0  0
 14 16  1  0  0  0
 16 17  1  0  0  0
 16 19  1  0  0  0
 19 20  1  0  0  0
 20 21  1  0  0  0
 20 22  2  0  0  0
 21 23  2  0  0  0
 22 24  1  0  0  0
 23 25  1  0  0  0
 24 25  2  0  0  0
 46 47  1  0  0  0
 39 40  1  0  0  0
  2  3  1  0  0  0
  4  6  1  0  0  0
  8 11  1  0  0  0
 13 18  1  0  0  0
M  END
> <minimizedAffinity>
-9.30218

$$$$
