3O75_F1X_A_1


 22 22  0  0  0  0  0  0  0  0999 V2000
   -1.8439    5.4203    4.9745 C   0  0  0  0  0  0  0  0  0  0  0  0
   -0.6028    5.6552    5.6527 O   0  0  0  0  0  0  0  0  0  0  0  0
   -2.2665    3.9694    5.1555 C   0  0  0  0  0  0  0  0  0  0  0  0
   -1.1591    3.0747    5.0796 O   0  0  0  0  0  0  0  0  0  0  0  0
   -2.9036    4.0178    6.5215 C   0  0  0  0  0  0  0  0  0  0  0  0
   -3.7530    2.9026    6.8048 O   0  0  0  0  0  0  0  0  0  0  0  0
   -3.6963    5.2972    6.3387 C   0  0  0  0  0  0  0  0  0  0  0  0
   -2.8621    6.1999    5.6025 O   0  0  0  0  0  0  0  0  0  0  0  0
   -0.3393    6.5811    5.5334 H   0  0  0  0  0  0  0  0  0  0  0  0
   -0.4944    3.3263    5.7397 H   0  0  0  0  0  0  0  0  0  0  0  0
   -4.4305    2.8286    6.1146 H   0  0  0  0  0  0  0  0  0  0  0  0
   -4.1477    5.8432    7.6708 C   0  0  0  0  0  0  0  0  0  0  0  0
   -3.1026    5.4913    8.5685 O   0  0  0  0  0  0  0  0  0  0  0  0
   -2.9806    4.5290    8.5614 H   0  0  0  0  0  0  0  0  0  0  0  0
   -1.6980    5.7497    3.4993 C   0  0  0  0  0  0  0  0  0  0  0  0
   -1.9916    4.5883    2.7382 O   0  0  0  0  0  0  0  0  0  0  0  0
   -0.8874    4.0341    1.7091 P   0  0  0  0  0  0  0  0  0  0  0  0
   -0.7149    2.5852    2.0838 O   0  0  0  0  0  0  0  0  0  0  0  0
   -1.5054    4.2459    0.3534 O   0  0  0  0  0  0  0  0  0  0  0  0
    0.3262    4.8824    1.9966 O   0  0  0  0  0  0  0  0  0  0  0  0
   -0.3135    2.5246    2.9647 H   0  0  0  0  0  0  0  0  0  0  0  0
   -1.5857    5.1968    0.1796 H   0  0  0  0  0  0  0  0  0  0  0  0
 16 15  1  0  0  0
 15  1  1  0  0  0
 17 16  1  0  0  0
 20 17  2  0  0  0
 17 19  1  0  0  0
 17 18  1  0  0  0
  2  1  1  0  0  0
  1  8  1  0  0  0
  1  3  1  0  0  0
  4  3  1  0  0  0
  3  5  1  0  0  0
  7  5  1  0  0  0
  5  6  1  0  0  0
  8  7  1  0  0  0
  7 12  1  0  0  0
 12 13  1  0  0  0
  2  9  1  0  0  0
  4 10  1  0  0  0
  6 11  1  0  0  0
 13 14  1  0  0  0
 18 21  1  0  0  0
 19 22  1  0  0  0
M  END
> <minimizedAffinity>
-8.78031

$$$$
3O75_F1X_A_1


 22 22  0  0  0  0  0  0  0  0999 V2000
   -1.5961    4.0295    4.4761 C   0  0  0  0  0  0  0  0  0  0  0  0
   -0.3032    3.9993    5.0947 O   0  0  0  0  0  0  0  0  0  0  0  0
   -1.8019    5.3625    3.7710 C   0  0  0  0  0  0  0  0  0  0  0  0
   -1.2754    6.4537    4.5223 O   0  0  0  0  0  0  0  0  0  0  0  0
   -1.0727    5.1232    2.4728 C   0  0  0  0  0  0  0  0  0  0  0  0
   -1.4232    6.0409    1.4334 O   0  0  0  0  0  0  0  0  0  0  0  0
   -1.5953    3.7280    2.1921 C   0  0  0  0  0  0  0  0  0  0  0  0
   -1.6336    3.0394    3.4478 O   0  0  0  0  0  0  0  0  0  0  0  0
   -0.1785    3.1476    5.5420 H   0  0  0  0  0  0  0  0  0  0  0  0
   -0.3347    6.2988    4.7015 H   0  0  0  0  0  0  0  0  0  0  0  0
   -2.3830    6.0208    1.2944 H   0  0  0  0  0  0  0  0  0  0  0  0
   -0.7487    3.0379    1.1511 C   0  0  0  0  0  0  0  0  0  0  0  0
   -0.7419    1.6732    1.5503 O   0  0  0  0  0  0  0  0  0  0  0  0
   -0.3894    1.6016    2.4512 H   0  0  0  0  0  0  0  0  0  0  0  0
   -2.6754    3.8109    5.5217 C   0  0  0  0  0  0  0  0  0  0  0  0
   -2.3417    4.5485    6.6873 O   0  0  0  0  0  0  0  0  0  0  0  0
   -3.3217    5.7297    7.1665 P   0  0  0  0  0  0  0  0  0  0  0  0
   -2.4412    6.9507    7.2260 O   0  0  0  0  0  0  0  0  0  0  0  0
   -4.3793    5.7899    6.0975 O   0  0  0  0  0  0  0  0  0  0  0  0
   -3.8059    5.2659    8.5176 O   0  0  0  0  0  0  0  0  0  0  0  0
   -1.7866    6.8430    7.9337 H   0  0  0  0  0  0  0  0  0  0  0  0
   -4.9056    4.9754    6.1172 H   0  0  0  0  0  0  0  0  0  0  0  0
 16 15  1  0  0  0
 15  1  1  0  0  0
 17 16  1  0  0  0
 20 17  2  0  0  0
 17 19  1  0  0  0
 17 18  1  0  0  0
  2  1  1  0  0  0
  1  8  1  0  0  0
  1  3  1  0  0  0
  4  3  1  0  0  0
  3  5  1  0  0  0
  7  5  1  0  0  0
  5  6  1  0  0  0
  8  7  1  0  0  0
  7 12  1  0  0  0
 12 13  1  0  0  0
  2  9  1  0  0  0
  4 10  1  0  0  0
  6 11  1  0  0  0
 13 14  1  0  0  0
 18 21  1  0  0  0
 19 22  1  0  0  0
M  END
> <minimizedAffinity>
-8.37663

$$$$
3O75_F1X_A_1


 22 22  0  0  0  0  0  0  0  0999 V2000
   -1.8692    4.8283    4.0446 C   0  0  0  0  0  0  0  0  0  0  0  0
   -2.5909    5.8709    3.3756 O   0  0  0  0  0  0  0  0  0  0  0  0
   -1.2315    5.3727    5.3148 C   0  0  0  0  0  0  0  0  0  0  0  0
   -0.7068    6.6855    5.1316 O   0  0  0  0  0  0  0  0  0  0  0  0
   -2.3955    5.3222    6.2722 C   0  0  0  0  0  0  0  0  0  0  0  0
   -2.0166    5.3903    7.6497 O   0  0  0  0  0  0  0  0  0  0  0  0
   -2.9158    3.9480    5.8986 C   0  0  0  0  0  0  0  0  0  0  0  0
   -2.7985    3.8334    4.4753 O   0  0  0  0  0  0  0  0  0  0  0  0
   -2.9946    5.5176    2.5675 H   0  0  0  0  0  0  0  0  0  0  0  0
   -1.4111    7.2744    4.8184 H   0  0  0  0  0  0  0  0  0  0  0  0
   -1.3824    4.6830    7.8459 H   0  0  0  0  0  0  0  0  0  0  0  0
   -4.3231    3.7514    6.4058 C   0  0  0  0  0  0  0  0  0  0  0  0
   -4.1922    3.7615    7.8217 O   0  0  0  0  0  0  0  0  0  0  0  0
   -3.5771    3.0628    8.0944 H   0  0  0  0  0  0  0  0  0  0  0  0
   -0.8073    4.2588    3.1205 C   0  0  0  0  0  0  0  0  0  0  0  0
   -1.0228    2.8633    2.9782 O   0  0  0  0  0  0  0  0  0  0  0  0
   -1.2519    2.2586    1.5060 P   0  0  0  0  0  0  0  0  0  0  0  0
   -0.0862    1.3282    1.2939 O   0  0  0  0  0  0  0  0  0  0  0  0
   -2.5826    1.5615    1.5949 O   0  0  0  0  0  0  0  0  0  0  0  0
   -1.2267    3.4740    0.6130 O   0  0  0  0  0  0  0  0  0  0  0  0
    0.7343    1.8434    1.2465 H   0  0  0  0  0  0  0  0  0  0  0  0
   -3.2833    2.2183    1.7309 H   0  0  0  0  0  0  0  0  0  0  0  0
 16 15  1  0  0  0
 15  1  1  0  0  0
 17 16  1  0  0  0
 20 17  2  0  0  0
 17 19  1  0  0  0
 17 18  1  0  0  0
  2  1  1  0  0  0
  1  8  1  0  0  0
  1  3  1  0  0  0
  4  3  1  0  0  0
  3  5  1  0  0  0
  7  5  1  0  0  0
  5  6  1  0  0  0
  8  7  1  0  0  0
  7 12  1  0  0  0
 12 13  1  0  0  0
  2  9  1  0  0  0
  4 10  1  0  0  0
  6 11  1  0  0  0
 13 14  1  0  0  0
 18 21  1  0  0  0
 19 22  1  0  0  0
M  END
> <minimizedAffinity>
-8.20364

$$$$
3O75_F1X_A_1


 22 22  0  0  0  0  0  0  0  0999 V2000
   -2.3456    4.5379    5.1142 C   0  0  0  0  0  0  0  0  0  0  0  0
   -3.2631    5.2720    4.2929 O   0  0  0  0  0  0  0  0  0  0  0  0
   -2.0380    5.3262    6.3792 C   0  0  0  0  0  0  0  0  0  0  0  0
   -1.9037    6.7220    6.1221 O   0  0  0  0  0  0  0  0  0  0  0  0
   -3.2337    4.9879    7.2336 C   0  0  0  0  0  0  0  0  0  0  0  0
   -3.0443    5.2519    8.6264 O   0  0  0  0  0  0  0  0  0  0  0  0
   -3.2850    3.5006    6.9443 C   0  0  0  0  0  0  0  0  0  0  0  0
   -2.9844    3.3385    5.5529 O   0  0  0  0  0  0  0  0  0  0  0  0
   -3.4548    4.7644    3.4889 H   0  0  0  0  0  0  0  0  0  0  0  0
   -2.7108    7.0516    5.6969 H   0  0  0  0  0  0  0  0  0  0  0  0
   -2.2563    4.7814    8.9405 H   0  0  0  0  0  0  0  0  0  0  0  0
   -4.6199    2.9223    7.3446 C   0  0  0  0  0  0  0  0  0  0  0  0
   -4.4677    2.6048    8.7222 O   0  0  0  0  0  0  0  0  0  0  0  0
   -3.7261    1.9893    8.8321 H   0  0  0  0  0  0  0  0  0  0  0  0
   -1.0691    4.2574    4.3410 C   0  0  0  0  0  0  0  0  0  0  0  0
   -1.4085    3.8818    3.0151 O   0  0  0  0  0  0  0  0  0  0  0  0
   -0.9865    4.8487    1.8016 P   0  0  0  0  0  0  0  0  0  0  0  0
    0.5169    4.9127    1.8744 O   0  0  0  0  0  0  0  0  0  0  0  0
   -1.5102    4.1527    0.5743 O   0  0  0  0  0  0  0  0  0  0  0  0
   -1.6649    6.1544    2.1330 O   0  0  0  0  0  0  0  0  0  0  0  0
    0.7819    5.3720    2.6866 H   0  0  0  0  0  0  0  0  0  0  0  0
   -2.4800    4.1488    0.5940 H   0  0  0  0  0  0  0  0  0  0  0  0
 16 15  1  0  0  0
 15  1  1  0  0  0
 17 16  1  0  0  0
 20 17  2  0  0  0
 17 19  1  0  0  0
 17 18  1  0  0  0
  2  1  1  0  0  0
  1  8  1  0  0  0
  1  3  1  0  0  0
  4  3  1  0  0  0
  3  5  1  0  0  0
  7  5  1  0  0  0
  5  6  1  0  0  0
  8  7  1  0  0  0
  7 12  1  0  0  0
 12 13  1  0  0  0
  2  9  1  0  0  0
  4 10  1  0  0  0
  6 11  1  0  0  0
 13 14  1  0  0  0
 18 21  1  0  0  0
 19 22  1  0  0  0
M  END
> <minimizedAffinity>
-7.86796

$$$$
3O75_F1X_A_1


 22 22  0  0  0  0  0  0  0  0999 V2000
   -2.5182    4.9157    5.1842 C   0  0  0  0  0  0  0  0  0  0  0  0
   -3.5273    5.6206    4.4493 O   0  0  0  0  0  0  0  0  0  0  0  0
   -2.4770    5.4186    6.6202 C   0  0  0  0  0  0  0  0  0  0  0  0
   -2.6500    6.8315    6.6990 O   0  0  0  0  0  0  0  0  0  0  0  0
   -3.6136    4.6417    7.2356 C   0  0  0  0  0  0  0  0  0  0  0  0
   -3.5752    4.5921    8.6645 O   0  0  0  0  0  0  0  0  0  0  0  0
   -3.3056    3.2924    6.6168 C   0  0  0  0  0  0  0  0  0  0  0  0
   -2.8914    3.5400    5.2679 O   0  0  0  0  0  0  0  0  0  0  0  0
   -3.5483    5.2956    3.5356 H   0  0  0  0  0  0  0  0  0  0  0  0
   -3.4835    7.0796    6.2694 H   0  0  0  0  0  0  0  0  0  0  0  0
   -2.7212    4.2335    8.9527 H   0  0  0  0  0  0  0  0  0  0  0  0
   -4.4947    2.3698    6.7233 C   0  0  0  0  0  0  0  0  0  0  0  0
   -4.4536    1.8946    8.0628 O   0  0  0  0  0  0  0  0  0  0  0  0
   -3.6033    1.4567    8.2245 H   0  0  0  0  0  0  0  0  0  0  0  0
   -1.1666    5.1033    4.5180 C   0  0  0  0  0  0  0  0  0  0  0  0
   -1.0653    4.2051    3.4239 O   0  0  0  0  0  0  0  0  0  0  0  0
   -1.0009    4.8018    1.9322 P   0  0  0  0  0  0  0  0  0  0  0  0
   -1.6914    3.7680    1.0813 O   0  0  0  0  0  0  0  0  0  0  0  0
   -1.7390    6.1100    2.0245 O   0  0  0  0  0  0  0  0  0  0  0  0
    0.4777    4.9213    1.6590 O   0  0  0  0  0  0  0  0  0  0  0  0
   -1.1623    2.9551    1.0671 H   0  0  0  0  0  0  0  0  0  0  0  0
   -1.2393    6.7244    2.5847 H   0  0  0  0  0  0  0  0  0  0  0  0
 16 15  1  0  0  0
 15  1  1  0  0  0
 17 16  1  0  0  0
 20 17  2  0  0  0
 17 19  1  0  0  0
 17 18  1  0  0  0
  2  1  1  0  0  0
  1  8  1  0  0  0
  1  3  1  0  0  0
  4  3  1  0  0  0
  3  5  1  0  0  0
  7  5  1  0  0  0
  5  6  1  0  0  0
  8  7  1  0  0  0
  7 12  1  0  0  0
 12 13  1  0  0  0
  2  9  1  0  0  0
  4 10  1  0  0  0
  6 11  1  0  0  0
 13 14  1  0  0  0
 18 21  1  0  0  0
 19 22  1  0  0  0
M  END
> <minimizedAffinity>
-7.84265

$$$$
3O75_F1X_A_1


 22 22  0  0  0  0  0  0  0  0999 V2000
   -1.6336    5.2098    4.6109 C   0  0  0  0  0  0  0  0  0  0  0  0
   -2.7560    6.0449    4.2975 O   0  0  0  0  0  0  0  0  0  0  0  0
   -1.9994    3.7482    4.3957 C   0  0  0  0  0  0  0  0  0  0  0  0
   -3.3269    3.4583    4.8271 O   0  0  0  0  0  0  0  0  0  0  0  0
   -1.8128    3.6157    2.9051 C   0  0  0  0  0  0  0  0  0  0  0  0
   -1.6911    2.2639    2.4541 O   0  0  0  0  0  0  0  0  0  0  0  0
   -0.5016    4.3680    2.7896 C   0  0  0  0  0  0  0  0  0  0  0  0
   -0.5853    5.4860    3.6816 O   0  0  0  0  0  0  0  0  0  0  0  0
   -2.5163    6.9744    4.4367 H   0  0  0  0  0  0  0  0  0  0  0  0
   -3.9508    4.0422    4.3681 H   0  0  0  0  0  0  0  0  0  0  0  0
   -0.9659    1.8286    2.9289 H   0  0  0  0  0  0  0  0  0  0  0  0
   -0.2316    4.7577    1.3572 C   0  0  0  0  0  0  0  0  0  0  0  0
   -1.5122    4.7399    0.7396 O   0  0  0  0  0  0  0  0  0  0  0  0
   -1.9061    3.8589    0.8375 H   0  0  0  0  0  0  0  0  0  0  0  0
   -1.2012    5.4418    6.0480 C   0  0  0  0  0  0  0  0  0  0  0  0
   -2.0810    6.3811    6.6464 O   0  0  0  0  0  0  0  0  0  0  0  0
   -3.3755    5.8415    7.4328 P   0  0  0  0  0  0  0  0  0  0  0  0
   -3.1061    4.3742    7.6425 O   0  0  0  0  0  0  0  0  0  0  0  0
   -3.3988    6.6468    8.7040 O   0  0  0  0  0  0  0  0  0  0  0  0
   -4.5125    6.1184    6.4812 O   0  0  0  0  0  0  0  0  0  0  0  0
   -3.1055    3.9199    6.7855 H   0  0  0  0  0  0  0  0  0  0  0  0
   -3.5765    7.5770    8.4942 H   0  0  0  0  0  0  0  0  0  0  0  0
 16 15  1  0  0  0
 15  1  1  0  0  0
 17 16  1  0  0  0
 20 17  2  0  0  0
 17 19  1  0  0  0
 17 18  1  0  0  0
  2  1  1  0  0  0
  1  8  1  0  0  0
  1  3  1  0  0  0
  4  3  1  0  0  0
  3  5  1  0  0  0
  7  5  1  0  0  0
  5  6  1  0  0  0
  8  7  1  0  0  0
  7 12  1  0  0  0
 12 13  1  0  0  0
  2  9  1  0  0  0
  4 10  1  0  0  0
  6 11  1  0  0  0
 13 14  1  0  0  0
 18 21  1  0  0  0
 19 22  1  0  0  0
M  END
> <minimizedAffinity>
-6.84032

$$$$
3O75_F1X_A_1


 22 22  0  0  0  0  0  0  0  0999 V2000
   -1.2097    4.4336    5.3910 C   0  0  0  0  0  0  0  0  0  0  0  0
    0.1661    4.2919    5.7683 O   0  0  0  0  0  0  0  0  0  0  0  0
   -1.3961    5.7090    4.5817 C   0  0  0  0  0  0  0  0  0  0  0  0
   -0.6166    6.7875    5.0931 O   0  0  0  0  0  0  0  0  0  0  0  0
   -0.9605    5.2533    3.2118 C   0  0  0  0  0  0  0  0  0  0  0  0
   -1.3986    6.1063    2.1506 O   0  0  0  0  0  0  0  0  0  0  0  0
   -1.6801    3.9189    3.1952 C   0  0  0  0  0  0  0  0  0  0  0  0
   -1.5541    3.3639    4.5100 O   0  0  0  0  0  0  0  0  0  0  0  0
    0.2780    3.4776    6.2834 H   0  0  0  0  0  0  0  0  0  0  0  0
    0.3176    6.5276    5.1187 H   0  0  0  0  0  0  0  0  0  0  0  0
   -2.3633    6.1999    2.1884 H   0  0  0  0  0  0  0  0  0  0  0  0
   -1.1313    3.0274    2.1087 C   0  0  0  0  0  0  0  0  0  0  0  0
   -1.5697    3.6341    0.8998 O   0  0  0  0  0  0  0  0  0  0  0  0
   -2.5376    3.6971    0.9021 H   0  0  0  0  0  0  0  0  0  0  0  0
   -2.0863    4.4597    6.6307 C   0  0  0  0  0  0  0  0  0  0  0  0
   -2.5486    3.1439    6.8940 O   0  0  0  0  0  0  0  0  0  0  0  0
   -4.1310    2.8586    6.8776 P   0  0  0  0  0  0  0  0  0  0  0  0
   -4.5667    3.2249    5.4828 O   0  0  0  0  0  0  0  0  0  0  0  0
   -4.2458    1.3907    7.1885 O   0  0  0  0  0  0  0  0  0  0  0  0
   -4.6710    3.7805    7.9424 O   0  0  0  0  0  0  0  0  0  0  0  0
   -4.4663    4.1809    5.3533 H   0  0  0  0  0  0  0  0  0  0  0  0
   -3.9499    1.2287    8.0980 H   0  0  0  0  0  0  0  0  0  0  0  0
 16 15  1  0  0  0
 15  1  1  0  0  0
 17 16  1  0  0  0
 20 17  2  0  0  0
 17 19  1  0  0  0
 17 18  1  0  0  0
  2  1  1  0  0  0
  1  8  1  0  0  0
  1  3  1  0  0  0
  4  3  1  0  0  0
  3  5  1  0  0  0
  7  5  1  0  0  0
  5  6  1  0  0  0
  8  7  1  0  0  0
  7 12  1  0  0  0
 12 13  1  0  0  0
  2  9  1  0  0  0
  4 10  1  0  0  0
  6 11  1  0  0  0
 13 14  1  0  0  0
 18 21  1  0  0  0
 19 22  1  0  0  0
M  END
> <minimizedAffinity>
-6.29021

$$$$
