1MJJ_HAL_A_1001
  RCSB PDB12061703183D
Coordinates from PDB:1MJJ:A:1001 Model:1 without hydrogens
 33 34  0  0  0  0            999 V2000
    0.9290   44.8040   49.5320   C 0  0  0  0  0  0  0  0  0  0  0  0
    1.8140   45.3060   48.5900   C 0  0  0  0  0  0  0  0  0  0  0  0
    1.6210   45.0410   47.2170   C 0  0  0  0  0  0  0  0  0  0  0  0
    0.5340   44.2670   46.8060   C 0  0  0  0  0  0  0  0  0  0  0  0
   -0.3540   43.7690   47.7430   C 0  0  0  0  0  0  0  0  0  0  0  0
   -0.1510   44.0450   49.1040   C 0  0  0  0  0  0  0  0  0  0  0  0
    1.2050   44.9530   51.0010   C 0  0  0  0  0  0  0  0  0  0  0  0
    1.4930   43.6330   51.6780   C 0  0  0  0  0  0  0  0  0  0  0  0
    1.8830   43.7210   53.0910   N 0  0  0  0  0  0  0  0  0  0  0  0
    1.9650   42.6430   53.8630   C 0  0  0  0  0  0  0  0  0  0  0  0
    1.7290   41.5160   53.4220   O 0  0  0  0  0  0  0  0  0  0  0  0
    2.4090   42.8350   55.3130   C 0  0  0  0  0  0  0  0  0  0  0  0
    1.9130   44.0670   55.8320   O 0  0  0  0  0  0  0  0  0  0  0  0
    2.8310   45.3760   55.8720   P 0  0  0  0  0  0  0  0  0  0  0  0
    2.4290   46.2660   54.7550   O 0  0  0  0  0  0  0  0  0  0  0  0
    4.2530   44.9690   55.9870   O 0  0  0  0  0  0  0  0  0  0  0  0
    2.4930   46.0840   57.1370   C 0  0  0  0  0  0  0  0  0  0  0  0
    3.1840   47.4680   57.2620   C 0  0  0  0  0  0  0  0  0  0  0  0
    2.8780   48.2080   58.5710   C 0  0  0  0  0  0  0  0  0  0  0  0
    3.7320   48.1050   59.6700   C 0  0  0  0  0  0  0  0  0  0  0  0
    3.4410   48.7710   60.8850   C 0  0  0  0  0  0  0  0  0  0  0  0
    2.2770   49.5490   61.0000   C 0  0  0  0  0  0  0  0  0  0  0  0
    1.4180   49.6540   59.8950   C 0  0  0  0  0  0  0  0  0  0  0  0
    1.7270   48.9890   58.7020   C 0  0  0  0  0  0  0  0  0  0  0  0
    1.0620   46.3130   57.3530   N 0  0  0  0  0  0  0  0  0  0  0  0
    0.3640   45.7610   58.3510   C 0  0  0  0  0  0  0  0  0  0  0  0
    0.8420   44.9520   59.1510   O 0  0  0  0  0  0  0  0  0  0  0  0
   -1.1120   46.1430   58.4520   C 0  0  0  0  0  0  0  0  0  0  0  0
   -1.6610   46.0580   59.9190   C 0  0  0  0  0  0  0  0  0  0  0  0
   -0.8230   46.9040   60.8740   C 0  0  0  0  0  0  0  0  0  0  0  0
   -1.3660   46.8920   62.3060   C 0  0  0  0  0  0  0  0  0  0  0  0
   -1.1790   47.9010   63.0130   O 0  0  0  0  0  0  0  0  0  0  0  0
   -1.9530   45.8750   62.7330   O 0  0  0  0  0  0  0  0  0  0  0  0
  1  2  2  0  0  0  0
  1  6  1  0  0  0  0
  1  7  1  0  0  0  0
  2  3  1  0  0  0  0
  3  4  2  0  0  0  0
  4  5  1  0  0  0  0
  5  6  2  0  0  0  0
  7  8  1  0  0  0  0
  8  9  1  0  0  0  0
  9 10  1  0  0  0  0
 10 11  2  0  0  0  0
 10 12  1  0  0  0  0
 12 13  1  0  0  0  0
 13 14  1  0  0  0  0
 14 15  2  0  0  0  0
 14 16  1  0  0  0  0
 14 17  1  0  0  0  0
 17 18  1  0  0  0  0
 17 25  1  0  0  0  0
 18 19  1  0  0  0  0
 19 20  2  0  0  0  0
 19 24  1  0  0  0  0
 20 21  1  0  0  0  0
 21 22  2  0  0  0  0
 22 23  1  0  0  0  0
 23 24  2  0  0  0  0
 25 26  1  0  0  0  0
 26 27  2  0  0  0  0
 26 28  1  0  0  0  0
 28 29  1  0  0  0  0
 29 30  1  0  0  0  0
 30 31  1  0  0  0  0
 31 32  1  0  0  0  0
 31 33  2  0  0  0  0
A    1
CP1
A    2
CP2
A    3
CP3
A    4
CP4
A    5
CP5
A    6
CP6
A    7
C1
A    8
C2
A    9
N1
A   10
C3
A   11
O1
A   12
C4
A   13
O2
A   14
P
A   15
O3
A   16
O4
A   17
C5
A   18
C6
A   19
CR1
A   20
CR2
A   21
CR3
A   22
CR4
A   23
CR5
A   24
CR6
A   25
N2
A   26
C7
A   27
O5
A   28
C8
A   29
C9
A   30
C10
A   31
C11
A   32
O6
A   33
O7
M  END
>  <InstanceId>
1MJJ_HAL_A_1001

>  <ChemCompId>
HAL

>  <PdbId>
1MJJ

>  <ChainId>
A

>  <ResidueNumber>
1001

>  <InsertionCode>


>  <Model>
1

>  <AltIds>


>  <MissingHeavyAtoms>
0

>  <ObservedFormula>
C23 N2 O7 P

>  <Name>
N-{[2-({[1-(4-CARBOXYBUTANOYL)AMINO]-2-PHENYLETHYL}-HYDROXYPHOSPHINYL)OXY]ACETYL}-2-PHENYLETHYLAMINE

>  <SystematicName>
5-[[(1S)-1-[hydroxy-[2-oxo-2-(phenethylamino)ethoxy]phosphoryl]-2-phenyl-ethyl]amino]-5-oxo-pentanoic acid

>  <Synonyms>


>  <Type>
NON-POLYMER

>  <Formula>
C23 H29 N2 O7 P

>  <MolecularWeight>
476.459

>  <ModifiedDate>
2011-06-04

>  <Parent>


>  <OneLetterCode>


>  <SubcomponentList>


>  <AmbiguousFlag>
N

>  <InChI>
InChI=1S/C23H29N2O7P/c26-20(12-7-13-23(28)29)25-22(16-19-10-5-2-6-11-19)33(30,31)32-17-21(27)24-15-14-18-8-3-1-4-9-18/h1-6,8-11,22H,7,12-17H2,(H,24,27)(H,25,26)(H,28,29)(H,30,31)/t22-/m0/s1

>  <InChIKey>
DKQZZKSBRCTCQU-QFIPXVFZSA-N

>  <SMILES>
c1ccc(cc1)CCNC(=O)CO[P@@](=O)([C@@H](Cc2ccccc2)NC(=O)CCCC(=O)O)O

$$$$
