1MJJ_HAL_A_1001


 37 38  0  0  0  0  0  0  0  0999 V2000
    2.8164   45.6413   57.5651 C   0  0  0  0  0  0  0  0  0  0  0  0
    1.9067   45.1963   56.4741 P   0  0  0  0  0  0  0  0  0  0  0  0
    0.8350   44.3869   57.1048 O   0  0  0  0  0  0  0  0  0  0  0  0
    1.5316   46.4163   55.7179 O   0  0  0  0  0  0  0  0  0  0  0  0
    0.9354   46.1759   54.9916 H   0  0  0  0  0  0  0  0  0  0  0  0
    2.7738   44.2403   55.5296 O   0  0  0  0  0  0  0  0  0  0  0  0
    2.2131   43.0571   54.9650 C   0  0  0  0  0  0  0  0  0  0  0  0
    1.7112   44.0911   52.8022 N   0  0  0  0  0  0  0  0  0  0  0  0
    2.3080   43.0901   53.4398 C   0  0  0  0  0  0  0  0  0  0  0  0
    2.9516   42.2321   52.8315 O   0  0  0  0  0  0  0  0  0  0  0  0
    1.2151   44.7629   53.3236 H   0  0  0  0  0  0  0  0  0  0  0  0
    1.7713   44.2230   51.3409 C   0  0  0  0  0  0  0  0  0  0  0  0
    0.7135   45.1096   50.7254 C   0  0  0  0  0  0  0  0  0  0  0  0
    0.3412   44.6881   49.3326 C   0  0  0  0  0  0  0  0  0  0  0  0
   -0.9553   44.2988   49.0324 C   0  0  0  0  0  0  0  0  0  0  0  0
   -1.3315   44.0394   47.6969 C   0  0  0  0  0  0  0  0  0  0  0  0
   -0.3929   44.1781   46.6724 C   0  0  0  0  0  0  0  0  0  0  0  0
    0.9031   44.5613   46.9691 C   0  0  0  0  0  0  0  0  0  0  0  0
    1.2628   44.8112   48.3024 C   0  0  0  0  0  0  0  0  0  0  0  0
    3.9550   44.7549   57.8196 N   0  0  0  0  0  0  0  0  0  0  0  0
    5.2308   45.1525   57.7714 C   0  0  0  0  0  0  0  0  0  0  0  0
    5.5782   46.2903   57.4435 O   0  0  0  0  0  0  0  0  0  0  0  0
    3.7702   43.8131   58.0387 H   0  0  0  0  0  0  0  0  0  0  0  0
    6.2912   44.1046   58.1063 C   0  0  0  0  0  0  0  0  0  0  0  0
    6.0906   42.7649   57.3153 C   0  0  0  0  0  0  0  0  0  0  0  0
    6.2142   42.9865   55.8101 C   0  0  0  0  0  0  0  0  0  0  0  0
    7.6425   42.7796   55.2975 C   0  0  0  0  0  0  0  0  0  0  0  0
    8.1213   43.6383   54.5319 O   0  0  0  0  0  0  0  0  0  0  0  0
    8.2750   41.7560   55.6344 O   0  0  0  0  0  0  0  0  0  0  0  0
    7.6171   44.3937   54.3012 H   0  0  0  0  0  0  0  0  0  0  0  0
    2.0902   45.8263   58.9241 C   0  0  0  0  0  0  0  0  0  0  0  0
    2.0740   47.2725   59.4370 C   0  0  0  0  0  0  0  0  0  0  0  0
    2.9490   47.6872   60.4420 C   0  0  0  0  0  0  0  0  0  0  0  0
    2.9220   49.0158   60.9304 C   0  0  0  0  0  0  0  0  0  0  0  0
    2.0038   49.9403   60.4052 C   0  0  0  0  0  0  0  0  0  0  0  0
    1.1240   49.5244   59.3938 C   0  0  0  0  0  0  0  0  0  0  0  0
    1.1702   48.2061   58.9237 C   0  0  0  0  0  0  0  0  0  0  0  0
 14 15  2  0  0  0
 14 19  1  0  0  0
 14 13  1  0  0  0
 15 16  1  0  0  0
 16 17  2  0  0  0
 17 18  1  0  0  0
 18 19  2  0  0  0
 13 12  1  0  0  0
 12  8  1  0  0  0
  8  9  1  0  0  0
  9 10  2  0  0  0
  9  7  1  0  0  0
  7  6  1  0  0  0
  6  2  1  0  0  0
  2  3  2  0  0  0
  2  4  1  0  0  0
  2  1  1  0  0  0
  1 31  1  0  0  0
  1 20  1  0  0  0
 31 32  1  0  0  0
 32 33  2  0  0  0
 32 37  1  0  0  0
 33 34  1  0  0  0
 34 35  2  0  0  0
 35 36  1  0  0  0
 36 37  2  0  0  0
 20 21  1  0  0  0
 21 22  2  0  0  0
 21 24  1  0  0  0
 24 25  1  0  0  0
 25 26  1  0  0  0
 26 27  1  0  0  0
 27 28  1  0  0  0
 27 29  2  0  0  0
  8 11  1  0  0  0
  4  5  1  0  0  0
 20 23  1  0  0  0
 28 30  1  0  0  0
M  END
> <minimizedAffinity>
-8.94732

$$$$
1MJJ_HAL_A_1001


 37 38  0  0  0  0  0  0  0  0999 V2000
    2.9003   45.6282   57.5366 C   0  0  0  0  0  0  0  0  0  0  0  0
    2.1160   45.1553   56.3632 P   0  0  0  0  0  0  0  0  0  0  0  0
    1.2077   44.0875   56.8493 O   0  0  0  0  0  0  0  0  0  0  0  0
    1.5284   46.3651   55.7372 O   0  0  0  0  0  0  0  0  0  0  0  0
    1.0046   46.1064   54.9628 H   0  0  0  0  0  0  0  0  0  0  0  0
    3.1702   44.5023   55.3533 O   0  0  0  0  0  0  0  0  0  0  0  0
    3.1013   43.1205   55.0082 C   0  0  0  0  0  0  0  0  0  0  0  0
    2.2350   43.8842   52.8483 N   0  0  0  0  0  0  0  0  0  0  0  0
    2.2416   42.9185   53.7605 C   0  0  0  0  0  0  0  0  0  0  0  0
    1.6077   41.8738   53.5965 O   0  0  0  0  0  0  0  0  0  0  0  0
    2.7623   44.6996   53.0104 H   0  0  0  0  0  0  0  0  0  0  0  0
    1.4627   43.7687   51.6047 C   0  0  0  0  0  0  0  0  0  0  0  0
    1.0528   45.0781   50.9714 C   0  0  0  0  0  0  0  0  0  0  0  0
    0.6266   44.9222   49.5395 C   0  0  0  0  0  0  0  0  0  0  0  0
    1.5166   45.1655   48.5045 C   0  0  0  0  0  0  0  0  0  0  0  0
    1.1538   44.8829   47.1700 C   0  0  0  0  0  0  0  0  0  0  0  0
   -0.1077   44.3531   46.8914 C   0  0  0  0  0  0  0  0  0  0  0  0
   -1.0002   44.1141   47.9214 C   0  0  0  0  0  0  0  0  0  0  0  0
   -0.6263   44.4046   49.2425 C   0  0  0  0  0  0  0  0  0  0  0  0
    2.2239   45.4876   58.8287 N   0  0  0  0  0  0  0  0  0  0  0  0
    2.7344   44.8140   59.8648 C   0  0  0  0  0  0  0  0  0  0  0  0
    3.7972   44.1887   59.8141 O   0  0  0  0  0  0  0  0  0  0  0  0
    1.3432   45.9134   58.9404 H   0  0  0  0  0  0  0  0  0  0  0  0
    1.9118   44.8048   61.1524 C   0  0  0  0  0  0  0  0  0  0  0  0
    0.8028   45.9141   61.1709 C   0  0  0  0  0  0  0  0  0  0  0  0
   -0.5791   45.3203   60.9105 C   0  0  0  0  0  0  0  0  0  0  0  0
   -1.3063   46.0028   59.7482 C   0  0  0  0  0  0  0  0  0  0  0  0
   -2.3796   46.5880   59.9901 O   0  0  0  0  0  0  0  0  0  0  0  0
   -0.8253   45.9356   58.5970 O   0  0  0  0  0  0  0  0  0  0  0  0
   -2.7097   46.6179   60.8665 H   0  0  0  0  0  0  0  0  0  0  0  0
    3.3267   47.1161   57.4227 C   0  0  0  0  0  0  0  0  0  0  0  0
    2.8100   48.0075   58.5599 C   0  0  0  0  0  0  0  0  0  0  0  0
    1.5321   48.5663   58.5094 C   0  0  0  0  0  0  0  0  0  0  0  0
    1.0611   49.4050   59.5482 C   0  0  0  0  0  0  0  0  0  0  0  0
    1.8834   49.6888   60.6513 C   0  0  0  0  0  0  0  0  0  0  0  0
    3.1683   49.1265   60.7035 C   0  0  0  0  0  0  0  0  0  0  0  0
    3.6126   48.2973   59.6661 C   0  0  0  0  0  0  0  0  0  0  0  0
 14 15  2  0  0  0
 14 19  1  0  0  0
 14 13  1  0  0  0
 15 16  1  0  0  0
 16 17  2  0  0  0
 17 18  1  0  0  0
 18 19  2  0  0  0
 13 12  1  0  0  0
 12  8  1  0  0  0
  8  9  1  0  0  0
  9 10  2  0  0  0
  9  7  1  0  0  0
  7  6  1  0  0  0
  6  2  1  0  0  0
  2  3  2  0  0  0
  2  4  1  0  0  0
  2  1  1  0  0  0
  1 31  1  0  0  0
  1 20  1  0  0  0
 31 32  1  0  0  0
 32 33  2  0  0  0
 32 37  1  0  0  0
 33 34  1  0  0  0
 34 35  2  0  0  0
 35 36  1  0  0  0
 36 37  2  0  0  0
 20 21  1  0  0  0
 21 22  2  0  0  0
 21 24  1  0  0  0
 24 25  1  0  0  0
 25 26  1  0  0  0
 26 27  1  0  0  0
 27 28  1  0  0  0
 27 29  2  0  0  0
  8 11  1  0  0  0
  4  5  1  0  0  0
 20 23  1  0  0  0
 28 30  1  0  0  0
M  END
> <minimizedAffinity>
-8.62589

$$$$
1MJJ_HAL_A_1001


 37 38  0  0  0  0  0  0  0  0999 V2000
    1.9719   45.7716   57.3825 C   0  0  0  0  0  0  0  0  0  0  0  0
    2.6166   45.3298   56.1157 P   0  0  0  0  0  0  0  0  0  0  0  0
    2.0066   46.1209   55.0187 O   0  0  0  0  0  0  0  0  0  0  0  0
    4.0807   45.4222   56.3365 O   0  0  0  0  0  0  0  0  0  0  0  0
    4.5471   45.1427   55.5332 H   0  0  0  0  0  0  0  0  0  0  0  0
    2.2123   43.7951   55.9185 O   0  0  0  0  0  0  0  0  0  0  0  0
    2.9068   42.9636   54.9914 C   0  0  0  0  0  0  0  0  0  0  0  0
    2.1521   43.8825   52.8502 N   0  0  0  0  0  0  0  0  0  0  0  0
    2.1266   42.8471   53.6821 C   0  0  0  0  0  0  0  0  0  0  0  0
    1.5268   41.8079   53.3983 O   0  0  0  0  0  0  0  0  0  0  0  0
    2.6507   44.6914   53.1076 H   0  0  0  0  0  0  0  0  0  0  0  0
    1.4569   43.8534   51.5570 C   0  0  0  0  0  0  0  0  0  0  0  0
    1.7667   45.0042   50.6278 C   0  0  0  0  0  0  0  0  0  0  0  0
    1.0864   44.8734   49.2950 C   0  0  0  0  0  0  0  0  0  0  0  0
    1.7490   45.2113   48.1248 C   0  0  0  0  0  0  0  0  0  0  0  0
    1.1564   44.9546   46.8695 C   0  0  0  0  0  0  0  0  0  0  0  0
   -0.1030   44.3551   46.8066 C   0  0  0  0  0  0  0  0  0  0  0  0
   -0.7693   44.0216   47.9725 C   0  0  0  0  0  0  0  0  0  0  0  0
   -0.1688   44.2873   49.2129 C   0  0  0  0  0  0  0  0  0  0  0  0
    2.8651   46.4483   58.3265 N   0  0  0  0  0  0  0  0  0  0  0  0
    2.6383   47.6714   58.8168 C   0  0  0  0  0  0  0  0  0  0  0  0
    1.6872   48.3782   58.4723 O   0  0  0  0  0  0  0  0  0  0  0  0
    3.6785   45.9754   58.6163 H   0  0  0  0  0  0  0  0  0  0  0  0
    3.6537   48.2079   59.8248 C   0  0  0  0  0  0  0  0  0  0  0  0
    5.0082   47.4172   59.7999 C   0  0  0  0  0  0  0  0  0  0  0  0
    6.0788   48.1766   59.0207 C   0  0  0  0  0  0  0  0  0  0  0  0
    6.2724   47.6353   57.6012 C   0  0  0  0  0  0  0  0  0  0  0  0
    7.2841   46.9457   57.3689 O   0  0  0  0  0  0  0  0  0  0  0  0
    5.4360   47.9156   56.7163 O   0  0  0  0  0  0  0  0  0  0  0  0
    7.8898   46.7557   58.0581 H   0  0  0  0  0  0  0  0  0  0  0  0
    1.3063   44.6074   58.1637 C   0  0  0  0  0  0  0  0  0  0  0  0
    0.1085   45.0310   59.0243 C   0  0  0  0  0  0  0  0  0  0  0  0
   -0.0044   44.6145   60.3515 C   0  0  0  0  0  0  0  0  0  0  0  0
   -1.1187   44.9880   61.1410 C   0  0  0  0  0  0  0  0  0  0  0  0
   -2.1343   45.7880   60.5915 C   0  0  0  0  0  0  0  0  0  0  0  0
   -2.0212   46.2081   59.2571 C   0  0  0  0  0  0  0  0  0  0  0  0
   -0.9088   45.8293   58.4955 C   0  0  0  0  0  0  0  0  0  0  0  0
 14 15  2  0  0  0
 14 19  1  0  0  0
 14 13  1  0  0  0
 15 16  1  0  0  0
 16 17  2  0  0  0
 17 18  1  0  0  0
 18 19  2  0  0  0
 13 12  1  0  0  0
 12  8  1  0  0  0
  8  9  1  0  0  0
  9 10  2  0  0  0
  9  7  1  0  0  0
  7  6  1  0  0  0
  6  2  1  0  0  0
  2  3  2  0  0  0
  2  4  1  0  0  0
  2  1  1  0  0  0
  1 31  1  0  0  0
  1 20  1  0  0  0
 31 32  1  0  0  0
 32 33  2  0  0  0
 32 37  1  0  0  0
 33 34  1  0  0  0
 34 35  2  0  0  0
 35 36  1  0  0  0
 36 37  2  0  0  0
 20 21  1  0  0  0
 21 22  2  0  0  0
 21 24  1  0  0  0
 24 25  1  0  0  0
 25 26  1  0  0  0
 26 27  1  0  0  0
 27 28  1  0  0  0
 27 29  2  0  0  0
  8 11  1  0  0  0
  4  5  1  0  0  0
 20 23  1  0  0  0
 28 30  1  0  0  0
M  END
> <minimizedAffinity>
-8.49949

$$$$
1MJJ_HAL_A_1001


 37 38  0  0  0  0  0  0  0  0999 V2000
    2.1461   45.5777   57.4220 C   0  0  0  0  0  0  0  0  0  0  0  0
    2.8888   45.1709   56.1978 P   0  0  0  0  0  0  0  0  0  0  0  0
    2.3852   46.0121   55.0842 O   0  0  0  0  0  0  0  0  0  0  0  0
    4.3303   45.2291   56.5439 O   0  0  0  0  0  0  0  0  0  0  0  0
    4.8586   44.9707   55.7725 H   0  0  0  0  0  0  0  0  0  0  0  0
    2.4801   43.6517   55.9097 O   0  0  0  0  0  0  0  0  0  0  0  0
    3.0851   42.9145   54.8497 C   0  0  0  0  0  0  0  0  0  0  0  0
    2.1206   43.9163   52.8335 N   0  0  0  0  0  0  0  0  0  0  0  0
    2.1587   42.8577   53.6351 C   0  0  0  0  0  0  0  0  0  0  0  0
    1.5001   41.8436   53.3940 O   0  0  0  0  0  0  0  0  0  0  0  0
    2.6688   44.7038   53.0539 H   0  0  0  0  0  0  0  0  0  0  0  0
    1.2830   43.9441   51.6276 C   0  0  0  0  0  0  0  0  0  0  0  0
    2.0080   44.2656   50.3413 C   0  0  0  0  0  0  0  0  0  0  0  0
    1.0872   44.3293   49.1562 C   0  0  0  0  0  0  0  0  0  0  0  0
    1.5943   44.3904   47.8671 C   0  0  0  0  0  0  0  0  0  0  0  0
    0.7286   44.3085   46.7551 C   0  0  0  0  0  0  0  0  0  0  0  0
   -0.6456   44.1628   46.9550 C   0  0  0  0  0  0  0  0  0  0  0  0
   -1.1553   44.1068   48.2402 C   0  0  0  0  0  0  0  0  0  0  0  0
   -0.2822   44.1942   49.3354 C   0  0  0  0  0  0  0  0  0  0  0  0
    2.9415   46.3071   58.4130 N   0  0  0  0  0  0  0  0  0  0  0  0
    2.7798   47.6064   58.6843 C   0  0  0  0  0  0  0  0  0  0  0  0
    1.9882   48.3354   58.0802 O   0  0  0  0  0  0  0  0  0  0  0  0
    3.6345   45.8124   58.9072 H   0  0  0  0  0  0  0  0  0  0  0  0
    3.6678   48.1966   59.7787 C   0  0  0  0  0  0  0  0  0  0  0  0
    2.8536   48.9995   60.8526 C   0  0  0  0  0  0  0  0  0  0  0  0
    1.7124   48.1615   61.4231 C   0  0  0  0  0  0  0  0  0  0  0  0
    0.3438   48.8243   61.2407 C   0  0  0  0  0  0  0  0  0  0  0  0
    0.1720   49.5509   60.2430 O   0  0  0  0  0  0  0  0  0  0  0  0
   -0.5467   48.6432   62.0982 O   0  0  0  0  0  0  0  0  0  0  0  0
    0.8633   49.6632   59.6206 H   0  0  0  0  0  0  0  0  0  0  0  0
    1.5036   44.3788   58.1694 C   0  0  0  0  0  0  0  0  0  0  0  0
    0.3543   44.7664   59.1094 C   0  0  0  0  0  0  0  0  0  0  0  0
   -0.5929   45.7186   58.7301 C   0  0  0  0  0  0  0  0  0  0  0  0
   -1.6424   46.0919   59.6039 C   0  0  0  0  0  0  0  0  0  0  0  0
   -1.7422   45.5040   60.8758 C   0  0  0  0  0  0  0  0  0  0  0  0
   -0.7906   44.5456   61.2579 C   0  0  0  0  0  0  0  0  0  0  0  0
    0.2375   44.1893   60.3764 C   0  0  0  0  0  0  0  0  0  0  0  0
 14 15  2  0  0  0
 14 19  1  0  0  0
 14 13  1  0  0  0
 15 16  1  0  0  0
 16 17  2  0  0  0
 17 18  1  0  0  0
 18 19  2  0  0  0
 13 12  1  0  0  0
 12  8  1  0  0  0
  8  9  1  0  0  0
  9 10  2  0  0  0
  9  7  1  0  0  0
  7  6  1  0  0  0
  6  2  1  0  0  0
  2  3  2  0  0  0
  2  4  1  0  0  0
  2  1  1  0  0  0
  1 31  1  0  0  0
  1 20  1  0  0  0
 31 32  1  0  0  0
 32 33  2  0  0  0
 32 37  1  0  0  0
 33 34  1  0  0  0
 34 35  2  0  0  0
 35 36  1  0  0  0
 36 37  2  0  0  0
 20 21  1  0  0  0
 21 22  2  0  0  0
 21 24  1  0  0  0
 24 25  1  0  0  0
 25 26  1  0  0  0
 26 27  1  0  0  0
 27 28  1  0  0  0
 27 29  2  0  0  0
  8 11  1  0  0  0
  4  5  1  0  0  0
 20 23  1  0  0  0
 28 30  1  0  0  0
M  END
> <minimizedAffinity>
-8.42346

$$$$
1MJJ_HAL_A_1001


 37 38  0  0  0  0  0  0  0  0999 V2000
    2.7952   45.9992   57.4413 C   0  0  0  0  0  0  0  0  0  0  0  0
    2.0565   45.2818   56.3664 P   0  0  0  0  0  0  0  0  0  0  0  0
    1.1350   44.3293   57.0335 O   0  0  0  0  0  0  0  0  0  0  0  0
    1.4876   46.3267   55.4801 O   0  0  0  0  0  0  0  0  0  0  0  0
    0.9937   45.9055   54.7593 H   0  0  0  0  0  0  0  0  0  0  0  0
    3.1497   44.4439   55.5538 O   0  0  0  0  0  0  0  0  0  0  0  0
    2.9250   43.0785   55.2096 C   0  0  0  0  0  0  0  0  0  0  0  0
    2.1371   44.0545   53.1059 N   0  0  0  0  0  0  0  0  0  0  0  0
    2.1848   42.9733   53.8763 C   0  0  0  0  0  0  0  0  0  0  0  0
    1.6836   41.9052   53.5184 O   0  0  0  0  0  0  0  0  0  0  0  0
    2.5580   44.8865   53.4217 H   0  0  0  0  0  0  0  0  0  0  0  0
    1.4735   44.0424   51.7959 C   0  0  0  0  0  0  0  0  0  0  0  0
    1.5662   45.3297   51.0098 C   0  0  0  0  0  0  0  0  0  0  0  0
    1.1871   45.1572   49.5666 C   0  0  0  0  0  0  0  0  0  0  0  0
    2.0070   45.6363   48.5562 C   0  0  0  0  0  0  0  0  0  0  0  0
    1.7167   45.3489   47.2050 C   0  0  0  0  0  0  0  0  0  0  0  0
    0.5990   44.5758   46.8849 C   0  0  0  0  0  0  0  0  0  0  0  0
   -0.2242   44.1006   47.8904 C   0  0  0  0  0  0  0  0  0  0  0  0
    0.0753   44.3987   49.2287 C   0  0  0  0  0  0  0  0  0  0  0  0
    4.0955   45.4204   57.7891 N   0  0  0  0  0  0  0  0  0  0  0  0
    5.2460   46.1005   57.7481 C   0  0  0  0  0  0  0  0  0  0  0  0
    5.3352   47.2654   57.3505 O   0  0  0  0  0  0  0  0  0  0  0  0
    4.1237   44.4769   58.0689 H   0  0  0  0  0  0  0  0  0  0  0  0
    6.5041   45.3517   58.1853 C   0  0  0  0  0  0  0  0  0  0  0  0
    6.7085   44.0046   57.4079 C   0  0  0  0  0  0  0  0  0  0  0  0
    6.9478   42.8420   58.3676 C   0  0  0  0  0  0  0  0  0  0  0  0
    5.6507   42.3012   58.9762 C   0  0  0  0  0  0  0  0  0  0  0  0
    5.7294   41.6252   60.0201 O   0  0  0  0  0  0  0  0  0  0  0  0
    4.5623   42.5264   58.4052 O   0  0  0  0  0  0  0  0  0  0  0  0
    6.5635   41.4770   60.4205 H   0  0  0  0  0  0  0  0  0  0  0  0
    1.9918   46.1039   58.7650 C   0  0  0  0  0  0  0  0  0  0  0  0
    1.9625   47.5123   59.3735 C   0  0  0  0  0  0  0  0  0  0  0  0
    1.0827   48.4833   58.8931 C   0  0  0  0  0  0  0  0  0  0  0  0
    1.0681   49.7892   59.4399 C   0  0  0  0  0  0  0  0  0  0  0  0
    1.9489   50.1262   60.4810 C   0  0  0  0  0  0  0  0  0  0  0  0
    2.8334   49.1501   60.9655 C   0  0  0  0  0  0  0  0  0  0  0  0
    2.8287   47.8639   60.4118 C   0  0  0  0  0  0  0  0  0  0  0  0
 14 15  2  0  0  0
 14 19  1  0  0  0
 14 13  1  0  0  0
 15 16  1  0  0  0
 16 17  2  0  0  0
 17 18  1  0  0  0
 18 19  2  0  0  0
 13 12  1  0  0  0
 12  8  1  0  0  0
  8  9  1  0  0  0
  9 10  2  0  0  0
  9  7  1  0  0  0
  7  6  1  0  0  0
  6  2  1  0  0  0
  2  3  2  0  0  0
  2  4  1  0  0  0
  2  1  1  0  0  0
  1 31  1  0  0  0
  1 20  1  0  0  0
 31 32  1  0  0  0
 32 33  2  0  0  0
 32 37  1  0  0  0
 33 34  1  0  0  0
 34 35  2  0  0  0
 35 36  1  0  0  0
 36 37  2  0  0  0
 20 21  1  0  0  0
 21 22  2  0  0  0
 21 24  1  0  0  0
 24 25  1  0  0  0
 25 26  1  0  0  0
 26 27  1  0  0  0
 27 28  1  0  0  0
 27 29  2  0  0  0
  8 11  1  0  0  0
  4  5  1  0  0  0
 20 23  1  0  0  0
 28 30  1  0  0  0
M  END
> <minimizedAffinity>
-8.35223

$$$$
1MJJ_HAL_A_1001


 37 38  0  0  0  0  0  0  0  0999 V2000
    2.8785   45.7149   57.5872 C   0  0  0  0  0  0  0  0  0  0  0  0
    1.9545   45.2918   56.4996 P   0  0  0  0  0  0  0  0  0  0  0  0
    0.9626   44.3699   57.1060 O   0  0  0  0  0  0  0  0  0  0  0  0
    1.4726   46.5364   55.8517 O   0  0  0  0  0  0  0  0  0  0  0  0
    0.8632   46.3109   55.1315 H   0  0  0  0  0  0  0  0  0  0  0  0
    2.8403   44.4664   55.4547 O   0  0  0  0  0  0  0  0  0  0  0  0
    2.5791   43.0891   55.1937 C   0  0  0  0  0  0  0  0  0  0  0  0
    2.1493   43.9329   52.9349 N   0  0  0  0  0  0  0  0  0  0  0  0
    2.0731   42.8978   53.7641 C   0  0  0  0  0  0  0  0  0  0  0  0
    1.6447   41.8037   53.3902 O   0  0  0  0  0  0  0  0  0  0  0  0
    2.5070   44.7876   53.2676 H   0  0  0  0  0  0  0  0  0  0  0  0
    1.7146   43.8370   51.5355 C   0  0  0  0  0  0  0  0  0  0  0  0
    0.9368   45.0235   51.0150 C   0  0  0  0  0  0  0  0  0  0  0  0
    0.5420   44.8717   49.5737 C   0  0  0  0  0  0  0  0  0  0  0  0
    1.4672   45.0715   48.5604 C   0  0  0  0  0  0  0  0  0  0  0  0
    1.1282   44.7915   47.2191 C   0  0  0  0  0  0  0  0  0  0  0  0
   -0.1453   44.3084   46.9117 C   0  0  0  0  0  0  0  0  0  0  0  0
   -1.0727   44.1130   47.9198 C   0  0  0  0  0  0  0  0  0  0  0  0
   -0.7219   44.4003   49.2480 C   0  0  0  0  0  0  0  0  0  0  0  0
    2.3595   45.5306   58.9449 N   0  0  0  0  0  0  0  0  0  0  0  0
    3.0096   44.8636   59.9043 C   0  0  0  0  0  0  0  0  0  0  0  0
    4.0823   44.2812   59.7224 O   0  0  0  0  0  0  0  0  0  0  0  0
    1.4820   45.9200   59.1633 H   0  0  0  0  0  0  0  0  0  0  0  0
    2.3400   44.8050   61.2765 C   0  0  0  0  0  0  0  0  0  0  0  0
    1.0525   43.9090   61.2848 C   0  0  0  0  0  0  0  0  0  0  0  0
    1.4052   42.4338   61.4560 C   0  0  0  0  0  0  0  0  0  0  0  0
    1.6836   41.7339   60.1225 C   0  0  0  0  0  0  0  0  0  0  0  0
    2.8591   41.4119   59.8629 O   0  0  0  0  0  0  0  0  0  0  0  0
    0.7422   41.5284   59.3271 O   0  0  0  0  0  0  0  0  0  0  0  0
    3.5396   41.5819   60.4843 H   0  0  0  0  0  0  0  0  0  0  0  0
    3.3052   47.2030   57.4774 C   0  0  0  0  0  0  0  0  0  0  0  0
    2.8168   48.0845   58.6345 C   0  0  0  0  0  0  0  0  0  0  0  0
    1.5558   48.6815   58.5990 C   0  0  0  0  0  0  0  0  0  0  0  0
    1.1114   49.5113   59.6566 C   0  0  0  0  0  0  0  0  0  0  0  0
    1.9435   49.7471   60.7636 C   0  0  0  0  0  0  0  0  0  0  0  0
    3.2114   49.1464   60.8007 C   0  0  0  0  0  0  0  0  0  0  0  0
    3.6294   48.3269   59.7449 C   0  0  0  0  0  0  0  0  0  0  0  0
 14 15  2  0  0  0
 14 19  1  0  0  0
 14 13  1  0  0  0
 15 16  1  0  0  0
 16 17  2  0  0  0
 17 18  1  0  0  0
 18 19  2  0  0  0
 13 12  1  0  0  0
 12  8  1  0  0  0
  8  9  1  0  0  0
  9 10  2  0  0  0
  9  7  1  0  0  0
  7  6  1  0  0  0
  6  2  1  0  0  0
  2  3  2  0  0  0
  2  4  1  0  0  0
  2  1  1  0  0  0
  1 31  1  0  0  0
  1 20  1  0  0  0
 31 32  1  0  0  0
 32 33  2  0  0  0
 32 37  1  0  0  0
 33 34  1  0  0  0
 34 35  2  0  0  0
 35 36  1  0  0  0
 36 37  2  0  0  0
 20 21  1  0  0  0
 21 22  2  0  0  0
 21 24  1  0  0  0
 24 25  1  0  0  0
 25 26  1  0  0  0
 26 27  1  0  0  0
 27 28  1  0  0  0
 27 29  2  0  0  0
  8 11  1  0  0  0
  4  5  1  0  0  0
 20 23  1  0  0  0
 28 30  1  0  0  0
M  END
> <minimizedAffinity>
-8.29266

$$$$
1MJJ_HAL_A_1001


 37 38  0  0  0  0  0  0  0  0999 V2000
    2.5002   45.6502   57.9583 C   0  0  0  0  0  0  0  0  0  0  0  0
    3.1502   45.1582   56.7129 P   0  0  0  0  0  0  0  0  0  0  0  0
    3.4749   46.3506   55.8919 O   0  0  0  0  0  0  0  0  0  0  0  0
    4.2523   44.2623   57.1416 O   0  0  0  0  0  0  0  0  0  0  0  0
    4.7089   43.9145   56.3597 H   0  0  0  0  0  0  0  0  0  0  0  0
    2.0455   44.2973   55.9408 O   0  0  0  0  0  0  0  0  0  0  0  0
    2.3050   42.9529   55.5426 C   0  0  0  0  0  0  0  0  0  0  0  0
    2.1147   43.7878   53.2479 N   0  0  0  0  0  0  0  0  0  0  0  0
    1.9635   42.7523   54.0663 C   0  0  0  0  0  0  0  0  0  0  0  0
    1.5965   41.6512   53.6502 O   0  0  0  0  0  0  0  0  0  0  0  0
    2.4197   44.6484   53.6160 H   0  0  0  0  0  0  0  0  0  0  0  0
    1.8391   43.6837   51.8093 C   0  0  0  0  0  0  0  0  0  0  0  0
    1.1817   44.8930   51.1855 C   0  0  0  0  0  0  0  0  0  0  0  0
    0.8108   44.6745   49.7464 C   0  0  0  0  0  0  0  0  0  0  0  0
   -0.4428   44.1917   49.4030 C   0  0  0  0  0  0  0  0  0  0  0  0
   -0.8341   44.1215   48.0485 C   0  0  0  0  0  0  0  0  0  0  0  0
    0.0458   44.5430   47.0496 C   0  0  0  0  0  0  0  0  0  0  0  0
    1.2995   45.0203   47.3886 C   0  0  0  0  0  0  0  0  0  0  0  0
    1.6754   45.0797   48.7394 C   0  0  0  0  0  0  0  0  0  0  0  0
    1.5508   44.7164   58.5696 N   0  0  0  0  0  0  0  0  0  0  0  0
    1.8509   43.9225   59.6028 C   0  0  0  0  0  0  0  0  0  0  0  0
    2.9771   43.8504   60.1023 O   0  0  0  0  0  0  0  0  0  0  0  0
    0.6400   44.6710   58.1985 H   0  0  0  0  0  0  0  0  0  0  0  0
    0.7259   43.0405   60.1425 C   0  0  0  0  0  0  0  0  0  0  0  0
    0.9950   41.5112   59.9202 C   0  0  0  0  0  0  0  0  0  0  0  0
    1.2489   40.7952   61.2442 C   0  0  0  0  0  0  0  0  0  0  0  0
    0.0037   40.0815   61.7786 C   0  0  0  0  0  0  0  0  0  0  0  0
   -1.0188   40.7626   61.9874 O   0  0  0  0  0  0  0  0  0  0  0  0
    0.0504   38.8552   62.0131 O   0  0  0  0  0  0  0  0  0  0  0  0
   -1.0168   41.6805   61.7993 H   0  0  0  0  0  0  0  0  0  0  0  0
    1.7364   46.9863   57.7581 C   0  0  0  0  0  0  0  0  0  0  0  0
    1.9870   48.0253   58.8591 C   0  0  0  0  0  0  0  0  0  0  0  0
    3.0767   47.9068   59.7229 C   0  0  0  0  0  0  0  0  0  0  0  0
    3.2983   48.8536   60.7520 C   0  0  0  0  0  0  0  0  0  0  0  0
    2.4142   49.9325   60.9182 C   0  0  0  0  0  0  0  0  0  0  0  0
    1.3185   50.0531   60.0493 C   0  0  0  0  0  0  0  0  0  0  0  0
    1.1202   49.1066   59.0366 C   0  0  0  0  0  0  0  0  0  0  0  0
 14 15  2  0  0  0
 14 19  1  0  0  0
 14 13  1  0  0  0
 15 16  1  0  0  0
 16 17  2  0  0  0
 17 18  1  0  0  0
 18 19  2  0  0  0
 13 12  1  0  0  0
 12  8  1  0  0  0
  8  9  1  0  0  0
  9 10  2  0  0  0
  9  7  1  0  0  0
  7  6  1  0  0  0
  6  2  1  0  0  0
  2  3  2  0  0  0
  2  4  1  0  0  0
  2  1  1  0  0  0
  1 31  1  0  0  0
  1 20  1  0  0  0
 31 32  1  0  0  0
 32 33  2  0  0  0
 32 37  1  0  0  0
 33 34  1  0  0  0
 34 35  2  0  0  0
 35 36  1  0  0  0
 36 37  2  0  0  0
 20 21  1  0  0  0
 21 22  2  0  0  0
 21 24  1  0  0  0
 24 25  1  0  0  0
 25 26  1  0  0  0
 26 27  1  0  0  0
 27 28  1  0  0  0
 27 29  2  0  0  0
  8 11  1  0  0  0
  4  5  1  0  0  0
 20 23  1  0  0  0
 28 30  1  0  0  0
M  END
> <minimizedAffinity>
-8.15062

$$$$
1MJJ_HAL_A_1001


 37 38  0  0  0  0  0  0  0  0999 V2000
    2.8286   46.0538   57.2617 C   0  0  0  0  0  0  0  0  0  0  0  0
    2.0263   45.3174   56.2469 P   0  0  0  0  0  0  0  0  0  0  0  0
    1.0464   44.4854   56.9878 O   0  0  0  0  0  0  0  0  0  0  0  0
    1.5239   46.3351   55.2914 O   0  0  0  0  0  0  0  0  0  0  0  0
    0.9918   45.9007   54.6066 H   0  0  0  0  0  0  0  0  0  0  0  0
    3.0455   44.3454   55.4891 O   0  0  0  0  0  0  0  0  0  0  0  0
    2.6437   43.0460   55.0608 C   0  0  0  0  0  0  0  0  0  0  0  0
    1.8991   43.9951   52.9292 N   0  0  0  0  0  0  0  0  0  0  0  0
    2.5241   42.9932   53.5379 C   0  0  0  0  0  0  0  0  0  0  0  0
    3.0274   42.0660   52.8997 O   0  0  0  0  0  0  0  0  0  0  0  0
    1.5191   44.7229   53.4724 H   0  0  0  0  0  0  0  0  0  0  0  0
    1.7594   44.0464   51.4683 C   0  0  0  0  0  0  0  0  0  0  0  0
    0.8489   45.1313   50.9413 C   0  0  0  0  0  0  0  0  0  0  0  0
    0.4923   44.9382   49.4950 C   0  0  0  0  0  0  0  0  0  0  0  0
    1.4326   45.1518   48.4985 C   0  0  0  0  0  0  0  0  0  0  0  0
    1.1342   44.8344   47.1558 C   0  0  0  0  0  0  0  0  0  0  0  0
   -0.1141   44.3002   46.8303 C   0  0  0  0  0  0  0  0  0  0  0  0
   -1.0565   44.0907   47.8215 C   0  0  0  0  0  0  0  0  0  0  0  0
   -0.7463   44.4156   49.1511 C   0  0  0  0  0  0  0  0  0  0  0  0
    2.0805   46.4862   58.4450 N   0  0  0  0  0  0  0  0  0  0  0  0
    2.3700   46.0951   59.6904 C   0  0  0  0  0  0  0  0  0  0  0  0
    3.2558   45.2792   59.9600 O   0  0  0  0  0  0  0  0  0  0  0  0
    1.3215   47.0998   58.3157 H   0  0  0  0  0  0  0  0  0  0  0  0
    1.5114   46.6779   60.8119 C   0  0  0  0  0  0  0  0  0  0  0  0
    2.0461   48.0589   61.3293 C   0  0  0  0  0  0  0  0  0  0  0  0
    2.4427   48.9690   60.1698 C   0  0  0  0  0  0  0  0  0  0  0  0
    1.2372   49.6452   59.5101 C   0  0  0  0  0  0  0  0  0  0  0  0
    0.7734   49.1349   58.4721 O   0  0  0  0  0  0  0  0  0  0  0  0
    0.7705   50.6921   60.0075 O   0  0  0  0  0  0  0  0  0  0  0  0
    1.1496   48.3487   58.1281 H   0  0  0  0  0  0  0  0  0  0  0  0
    3.5173   47.3212   56.6889 C   0  0  0  0  0  0  0  0  0  0  0  0
    4.9856   47.4817   57.1048 C   0  0  0  0  0  0  0  0  0  0  0  0
    5.5880   46.5730   57.9761 C   0  0  0  0  0  0  0  0  0  0  0  0
    6.9368   46.7307   58.3766 C   0  0  0  0  0  0  0  0  0  0  0  0
    7.6908   47.8153   57.8985 C   0  0  0  0  0  0  0  0  0  0  0  0
    7.0862   48.7291   57.0214 C   0  0  0  0  0  0  0  0  0  0  0  0
    5.7515   48.5521   56.6363 C   0  0  0  0  0  0  0  0  0  0  0  0
 14 15  2  0  0  0
 14 19  1  0  0  0
 14 13  1  0  0  0
 15 16  1  0  0  0
 16 17  2  0  0  0
 17 18  1  0  0  0
 18 19  2  0  0  0
 13 12  1  0  0  0
 12  8  1  0  0  0
  8  9  1  0  0  0
  9 10  2  0  0  0
  9  7  1  0  0  0
  7  6  1  0  0  0
  6  2  1  0  0  0
  2  3  2  0  0  0
  2  4  1  0  0  0
  2  1  1  0  0  0
  1 31  1  0  0  0
  1 20  1  0  0  0
 31 32  1  0  0  0
 32 33  2  0  0  0
 32 37  1  0  0  0
 33 34  1  0  0  0
 34 35  2  0  0  0
 35 36  1  0  0  0
 36 37  2  0  0  0
 20 21  1  0  0  0
 21 22  2  0  0  0
 21 24  1  0  0  0
 24 25  1  0  0  0
 25 26  1  0  0  0
 26 27  1  0  0  0
 27 28  1  0  0  0
 27 29  2  0  0  0
  8 11  1  0  0  0
  4  5  1  0  0  0
 20 23  1  0  0  0
 28 30  1  0  0  0
M  END
> <minimizedAffinity>
-7.98640

$$$$
1MJJ_HAL_A_1001


 37 38  0  0  0  0  0  0  0  0999 V2000
    3.7262   44.1551   57.6635 C   0  0  0  0  0  0  0  0  0  0  0  0
    3.2363   45.1528   56.6733 P   0  0  0  0  0  0  0  0  0  0  0  0
    1.8651   45.5395   57.0878 O   0  0  0  0  0  0  0  0  0  0  0  0
    4.2806   46.2029   56.5853 O   0  0  0  0  0  0  0  0  0  0  0  0
    4.0050   46.8802   55.9479 H   0  0  0  0  0  0  0  0  0  0  0  0
    3.1446   44.3863   55.2726 O   0  0  0  0  0  0  0  0  0  0  0  0
    2.3271   43.2283   55.1187 C   0  0  0  0  0  0  0  0  0  0  0  0
    1.9778   44.0371   52.8334 N   0  0  0  0  0  0  0  0  0  0  0  0
    2.0093   42.9848   53.6435 C   0  0  0  0  0  0  0  0  0  0  0  0
    1.8265   41.8411   53.2205 O   0  0  0  0  0  0  0  0  0  0  0  0
    2.1390   44.9338   53.2067 H   0  0  0  0  0  0  0  0  0  0  0  0
    1.7092   43.8996   51.3963 C   0  0  0  0  0  0  0  0  0  0  0  0
    0.8268   44.9694   50.7958 C   0  0  0  0  0  0  0  0  0  0  0  0
    0.3908   44.6440   49.3957 C   0  0  0  0  0  0  0  0  0  0  0  0
   -0.9308   44.3278   49.1203 C   0  0  0  0  0  0  0  0  0  0  0  0
   -1.3617   44.1609   47.7865 C   0  0  0  0  0  0  0  0  0  0  0  0
   -0.4520   44.3177   46.7389 C   0  0  0  0  0  0  0  0  0  0  0  0
    0.8688   44.6280   47.0105 C   0  0  0  0  0  0  0  0  0  0  0  0
    1.2827   44.7862   48.3422 C   0  0  0  0  0  0  0  0  0  0  0  0
    3.0442   44.1858   58.9599 N   0  0  0  0  0  0  0  0  0  0  0  0
    2.5168   43.1065   59.5473 C   0  0  0  0  0  0  0  0  0  0  0  0
    2.4949   41.9886   59.0250 O   0  0  0  0  0  0  0  0  0  0  0  0
    2.9701   45.0503   59.4251 H   0  0  0  0  0  0  0  0  0  0  0  0
    1.8791   43.3128   60.9204 C   0  0  0  0  0  0  0  0  0  0  0  0
    1.1879   44.7137   61.0633 C   0  0  0  0  0  0  0  0  0  0  0  0
   -0.0880   44.7896   60.2289 C   0  0  0  0  0  0  0  0  0  0  0  0
   -0.5231   46.2301   59.9438 C   0  0  0  0  0  0  0  0  0  0  0  0
   -1.7206   46.5271   60.1194 O   0  0  0  0  0  0  0  0  0  0  0  0
    0.3163   47.0547   59.5236 O   0  0  0  0  0  0  0  0  0  0  0  0
   -2.3217   45.8819   60.4361 H   0  0  0  0  0  0  0  0  0  0  0  0
    5.2434   44.2888   57.9610 C   0  0  0  0  0  0  0  0  0  0  0  0
    6.0940   43.1290   57.4261 C   0  0  0  0  0  0  0  0  0  0  0  0
    6.5786   42.1398   58.2832 C   0  0  0  0  0  0  0  0  0  0  0  0
    7.3801   41.0799   57.7947 C   0  0  0  0  0  0  0  0  0  0  0  0
    7.7015   41.0122   56.4289 C   0  0  0  0  0  0  0  0  0  0  0  0
    7.2138   42.0059   55.5660 C   0  0  0  0  0  0  0  0  0  0  0  0
    6.4203   43.0437   56.0704 C   0  0  0  0  0  0  0  0  0  0  0  0
 14 15  2  0  0  0
 14 19  1  0  0  0
 14 13  1  0  0  0
 15 16  1  0  0  0
 16 17  2  0  0  0
 17 18  1  0  0  0
 18 19  2  0  0  0
 13 12  1  0  0  0
 12  8  1  0  0  0
  8  9  1  0  0  0
  9 10  2  0  0  0
  9  7  1  0  0  0
  7  6  1  0  0  0
  6  2  1  0  0  0
  2  3  2  0  0  0
  2  4  1  0  0  0
  2  1  1  0  0  0
  1 31  1  0  0  0
  1 20  1  0  0  0
 31 32  1  0  0  0
 32 33  2  0  0  0
 32 37  1  0  0  0
 33 34  1  0  0  0
 34 35  2  0  0  0
 35 36  1  0  0  0
 36 37  2  0  0  0
 20 21  1  0  0  0
 21 22  2  0  0  0
 21 24  1  0  0  0
 24 25  1  0  0  0
 25 26  1  0  0  0
 26 27  1  0  0  0
 27 28  1  0  0  0
 27 29  2  0  0  0
  8 11  1  0  0  0
  4  5  1  0  0  0
 20 23  1  0  0  0
 28 30  1  0  0  0
M  END
> <minimizedAffinity>
-7.82818

$$$$
1MJJ_HAL_A_1001


 37 38  0  0  0  0  0  0  0  0999 V2000
    3.8352   43.9254   57.6444 C   0  0  0  0  0  0  0  0  0  0  0  0
    3.4682   45.1108   56.8224 P   0  0  0  0  0  0  0  0  0  0  0  0
    2.1621   45.6019   57.3266 O   0  0  0  0  0  0  0  0  0  0  0  0
    4.6379   46.0228   56.8570 O   0  0  0  0  0  0  0  0  0  0  0  0
    4.4456   46.8153   56.3318 H   0  0  0  0  0  0  0  0  0  0  0  0
    3.2656   44.5752   55.3291 O   0  0  0  0  0  0  0  0  0  0  0  0
    2.4058   43.4719   55.0525 C   0  0  0  0  0  0  0  0  0  0  0  0
    1.7785   44.1831   52.7943 N   0  0  0  0  0  0  0  0  0  0  0  0
    2.3108   43.2264   53.5468 C   0  0  0  0  0  0  0  0  0  0  0  0
    2.7509   42.1871   53.0505 O   0  0  0  0  0  0  0  0  0  0  0  0
    1.4473   45.0034   53.2262 H   0  0  0  0  0  0  0  0  0  0  0  0
    1.6706   44.0503   51.3358 C   0  0  0  0  0  0  0  0  0  0  0  0
    0.8930   45.1437   50.6405 C   0  0  0  0  0  0  0  0  0  0  0  0
    0.4253   44.7424   49.2707 C   0  0  0  0  0  0  0  0  0  0  0  0
   -0.8840   44.3380   49.0590 C   0  0  0  0  0  0  0  0  0  0  0  0
   -1.3538   44.0975   47.7497 C   0  0  0  0  0  0  0  0  0  0  0  0
   -0.4955   44.2704   46.6621 C   0  0  0  0  0  0  0  0  0  0  0  0
    0.8131   44.6687   46.8703 C   0  0  0  0  0  0  0  0  0  0  0  0
    1.2665   44.8995   48.1783 C   0  0  0  0  0  0  0  0  0  0  0  0
    3.0546   43.7607   58.8734 N   0  0  0  0  0  0  0  0  0  0  0  0
    2.1682   42.7780   59.0640 C   0  0  0  0  0  0  0  0  0  0  0  0
    1.8720   41.9499   58.1982 O   0  0  0  0  0  0  0  0  0  0  0  0
    3.1905   44.4107   59.6003 H   0  0  0  0  0  0  0  0  0  0  0  0
    1.4733   42.7321   60.4241 C   0  0  0  0  0  0  0  0  0  0  0  0
    0.5212   41.4948   60.5768 C   0  0  0  0  0  0  0  0  0  0  0  0
   -0.7215   41.8491   61.3893 C   0  0  0  0  0  0  0  0  0  0  0  0
   -0.9315   40.9161   62.5855 C   0  0  0  0  0  0  0  0  0  0  0  0
   -1.4194   39.7894   62.3725 O   0  0  0  0  0  0  0  0  0  0  0  0
   -0.6361   41.3114   63.7335 O   0  0  0  0  0  0  0  0  0  0  0  0
   -1.6284   39.5272   61.4976 H   0  0  0  0  0  0  0  0  0  0  0  0
    5.3285   43.9179   58.0671 C   0  0  0  0  0  0  0  0  0  0  0  0
    6.1750   42.8462   57.3674 C   0  0  0  0  0  0  0  0  0  0  0  0
    6.8047   41.8384   58.0992 C   0  0  0  0  0  0  0  0  0  0  0  0
    7.6023   40.8605   57.4574 C   0  0  0  0  0  0  0  0  0  0  0  0
    7.7724   40.8949   56.0634 C   0  0  0  0  0  0  0  0  0  0  0  0
    7.1387   41.9075   55.3265 C   0  0  0  0  0  0  0  0  0  0  0  0
    6.3520   42.8628   55.9817 C   0  0  0  0  0  0  0  0  0  0  0  0
 14 15  2  0  0  0
 14 19  1  0  0  0
 14 13  1  0  0  0
 15 16  1  0  0  0
 16 17  2  0  0  0
 17 18  1  0  0  0
 18 19  2  0  0  0
 13 12  1  0  0  0
 12  8  1  0  0  0
  8  9  1  0  0  0
  9 10  2  0  0  0
  9  7  1  0  0  0
  7  6  1  0  0  0
  6  2  1  0  0  0
  2  3  2  0  0  0
  2  4  1  0  0  0
  2  1  1  0  0  0
  1 31  1  0  0  0
  1 20  1  0  0  0
 31 32  1  0  0  0
 32 33  2  0  0  0
 32 37  1  0  0  0
 33 34  1  0  0  0
 34 35  2  0  0  0
 35 36  1  0  0  0
 36 37  2  0  0  0
 20 21  1  0  0  0
 21 22  2  0  0  0
 21 24  1  0  0  0
 24 25  1  0  0  0
 25 26  1  0  0  0
 26 27  1  0  0  0
 27 28  1  0  0  0
 27 29  2  0  0  0
  8 11  1  0  0  0
  4  5  1  0  0  0
 20 23  1  0  0  0
 28 30  1  0  0  0
M  END
> <minimizedAffinity>
-7.82592

$$$$
