3VTR_TCG_A_601
  RCSB PDB12061711163D
Coordinates from PDB:3VTR:A:601 Model:1 without hydrogens
 57 60  0  0  0  0            999 V2000
  -30.3440   72.2900   44.8490   O 0  0  0  0  0  0  0  0  0  0  0  0
  -30.7600   71.3530   44.1840   C 0  0  0  0  0  0  0  0  0  0  0  0
  -29.8150   70.3430   43.5870   C 0  0  0  0  0  0  0  0  0  0  0  0
  -32.0680   71.1890   43.9590   N 0  0  0  0  0  0  0  0  0  0  0  0
  -33.0250   72.1440   44.5240   C 0  0  0  0  0  0  0  0  0  0  0  0
  -34.1910   71.3550   45.1140   C 0  0  0  0  0  0  0  0  0  0  0  0
  -34.7000   72.0600   46.2520   O 0  0  0  0  0  0  0  0  0  0  0  0
  -35.3400   71.1410   44.1340   C 0  0  0  0  0  0  0  0  0  0  0  0
  -35.7950   72.4020   43.4290   C 0  0  0  0  0  0  0  0  0  0  0  0
  -37.1850   72.7460   43.9460   C 0  0  0  0  0  0  0  0  0  0  0  0
  -37.6280   74.0180   43.3770   O 0  0  0  0  0  0  0  0  0  0  0  0
  -34.8680   73.4650   43.6780   O 0  0  0  0  0  0  0  0  0  0  0  0
  -33.5110   73.0720   43.3990   C 0  0  0  0  0  0  0  0  0  0  0  0
  -32.6730   74.2520   43.3620   O 0  0  0  0  0  0  0  0  0  0  0  0
  -34.9550   70.2230   43.1290   O 0  0  0  0  0  0  0  0  0  0  0  0
  -34.5700   68.9950   43.7070   C 0  0  0  0  0  0  0  0  0  0  0  0
  -33.4000   68.6270   42.9790   O 0  0  0  0  0  0  0  0  0  0  0  0
  -32.9630   67.2780   43.1170   C 0  0  0  0  0  0  0  0  0  0  0  0
  -31.7840   67.0720   42.1690   C 0  0  0  0  0  0  0  0  0  0  0  0
  -32.1120   67.5750   40.8540   O 0  0  0  0  0  0  0  0  0  0  0  0
  -34.0900   66.2920   42.8170   C 0  0  0  0  0  0  0  0  0  0  0  0
  -35.3560   66.5990   43.5990   C 0  0  0  0  0  0  0  0  0  0  0  0
  -36.4330   65.8160   43.0750   O 0  0  0  0  0  0  0  0  0  0  0  0
  -35.7540   68.0560   43.4830   C 0  0  0  0  0  0  0  0  0  0  0  0
  -36.6880   68.2790   44.5880   N 0  0  0  0  0  0  0  0  0  0  0  0
  -37.9130   68.7740   44.3830   C 0  0  0  0  0  0  0  0  0  0  0  0
  -38.7810   68.9510   45.6010   C 0  0  0  0  0  0  0  0  0  0  0  0
  -38.3210   69.0790   43.2660   O 0  0  0  0  0  0  0  0  0  0  0  0
  -33.6800   65.0300   43.2930   O 0  0  0  0  0  0  0  0  0  0  0  0
  -33.8590   63.9780   42.3630   C 0  0  0  0  0  0  0  0  0  0  0  0
  -35.2250   63.5530   42.3730   O 0  0  0  0  0  0  0  0  0  0  0  0
  -35.4860   62.4680   41.4820   C 0  0  0  0  0  0  0  0  0  0  0  0
  -36.9750   62.1710   41.5520   C 0  0  0  0  0  0  0  0  0  0  0  0
  -37.7050   63.2840   41.0080   O 0  0  0  0  0  0  0  0  0  0  0  0
  -34.6310   61.2560   41.8620   C 0  0  0  0  0  0  0  0  0  0  0  0
  -33.1570   61.6450   41.9720   C 0  0  0  0  0  0  0  0  0  0  0  0
  -32.3760   60.5510   42.4770   O 0  0  0  0  0  0  0  0  0  0  0  0
  -32.9680   62.8580   42.8740   C 0  0  0  0  0  0  0  0  0  0  0  0
  -31.5950   63.3270   42.6870   N 0  0  0  0  0  0  0  0  0  0  0  0
  -30.7770   63.7660   43.6600   C 0  0  0  0  0  0  0  0  0  0  0  0
  -31.2800   63.7880   45.0730   C 0  0  0  0  0  0  0  0  0  0  0  0
  -29.6440   64.1390   43.4070   O 0  0  0  0  0  0  0  0  0  0  0  0
  -34.6750   60.2720   40.8370   O 0  0  0  0  0  0  0  0  0  0  0  0
  -35.6020   59.1980   41.0070   C 0  0  0  0  0  0  0  0  0  0  0  0
  -35.3440   58.1930   39.8630   C 0  0  0  0  0  0  0  0  0  0  0  0
  -36.6090   57.6110   39.3370   N 0  3  0  0  0  0  0  0  0  0  0  0
  -36.3190   56.6910   38.2190   C 0  0  0  0  0  0  0  0  0  0  0  0
  -37.4060   56.8850   40.3450   C 0  0  0  0  0  0  0  0  0  0  0  0
  -37.4560   58.6870   38.7920   C 0  0  0  0  0  0  0  0  0  0  0  0
  -34.2910   57.1300   40.2160   C 0  0  0  0  0  0  0  0  0  0  0  0
  -33.3220   57.0390   39.1680   O 0  0  0  0  0  0  0  0  0  0  0  0
  -33.5960   57.4560   41.5270   C 0  0  0  0  0  0  0  0  0  0  0  0
  -32.6750   56.4100   41.8400   O 0  0  0  0  0  0  0  0  0  0  0  0
  -34.6620   57.5740   42.6090   C 0  0  0  0  0  0  0  0  0  0  0  0
  -35.5740   58.6480   42.3390   O 0  0  0  0  0  0  0  0  0  0  0  0
  -34.0240   57.8030   43.9690   C 0  0  0  0  0  0  0  0  0  0  0  0
  -35.0580   57.9970   44.9510   O 0  0  0  0  0  0  0  0  0  0  0  0
 47 46  1  0  0  0  0
 49 46  1  0  0  0  0
 51 50  1  0  0  0  0
 46 45  1  0  0  0  0
 46 48  1  0  0  0  0
 45 50  1  0  0  0  0
 45 44  1  0  0  0  0
 50 52  1  0  0  0  0
 43 44  1  0  0  0  0
 43 35  1  0  0  0  0
 44 55  1  0  0  0  0
 20 19  1  0  0  0  0
 34 33  1  0  0  0  0
 19 18  1  0  0  0  0
 52 53  1  0  0  0  0
 52 54  1  0  0  0  0
 32 33  1  0  0  0  0
 32 35  1  0  0  0  0
 32 31  1  0  0  0  0
 35 36  1  0  0  0  0
 36 37  1  0  0  0  0
 36 38  1  0  0  0  0
 55 54  1  0  0  0  0
 30 31  1  0  0  0  0
 30 38  1  0  0  0  0
 30 29  1  0  0  0  0
 54 56  1  0  0  0  0
 39 38  1  0  0  0  0
 39 40  1  0  0  0  0
 18 21  1  0  0  0  0
 18 17  1  0  0  0  0
 21 29  1  0  0  0  0
 21 22  1  0  0  0  0
 11 10  1  0  0  0  0
 17 16  1  0  0  0  0
 42 40  2  0  0  0  0
 23 22  1  0  0  0  0
 40 41  1  0  0  0  0
  3  2  1  0  0  0  0
 15 16  1  0  0  0  0
 15  8  1  0  0  0  0
 24 22  1  0  0  0  0
 24 16  1  0  0  0  0
 24 25  1  0  0  0  0
 28 26  2  0  0  0  0
 56 57  1  0  0  0  0
  9 10  1  0  0  0  0
  9 12  1  0  0  0  0
  9  8  1  0  0  0  0
  4  2  1  0  0  0  0
  4  5  1  0  0  0  0
 13 12  1  0  0  0  0
 13 14  1  0  0  0  0
 13  5  1  0  0  0  0
  8  6  1  0  0  0  0
  2  1  2  0  0  0  0
 26 25  1  0  0  0  0
 26 27  1  0  0  0  0
  5  6  1  0  0  0  0
  6  7  1  0  0  0  0
M  CHG  1  46   1
A    1
O73
A    2
C73
A    3
C83
A    4
N23
A    5
C23
A    6
C33
A    7
O33
A    8
C43
A    9
C53
A   10
C63
A   11
O63
A   12
O53
A   13
C13
A   14
O13
A   15
O43
A   16
C12
A   17
O52
A   18
C52
A   19
C62
A   20
O62
A   21
C42
A   22
C32
A   23
O32
A   24
C22
A   25
N22
A   26
C72
A   27
C82
A   28
O72
A   29
O42
A   30
C11
A   31
O51
A   32
C51
A   33
C61
A   34
O61
A   35
C41
A   36
C31
A   37
O31
A   38
C21
A   39
N21
A   40
C71
A   41
C81
A   42
O71
A   43
O41
A   44
C1
A   45
C2
A   46
N2
A   47
C9
A   48
C8
A   49
C7
A   50
C3
A   51
O3
A   52
C4
A   53
O4
A   54
C5
A   55
O5
A   56
C6
A   57
O6
M  END
>  <InstanceId>
3VTR_TCG_A_601

>  <ChemCompId>
TCG

>  <PdbId>
3VTR

>  <ChainId>
A

>  <ResidueNumber>
601

>  <InsertionCode>


>  <Model>
1

>  <AltIds>


>  <MissingHeavyAtoms>
0

>  <ObservedFormula>
C33 N4 O20

>  <Name>
2-deoxy-2-(trimethylammonio)-beta-D-glucopyranosyl-(1->4)-2-(acetylamino)-2-deoxy-beta-D-glucopyranosyl-(1->4)-2-(acetylamino)-2-deoxy-beta-D-glucopyranosyl-(1->4)-2-(acetylamino)-2-deoxy-beta-D-glucopyranose

>  <SystematicName>
[(2S,3R,4R,5S,6R)-2-[(2R,3S,4R,5R,6S)-5-acetamido-6-[(2R,3S,4R,5R,6S)-5-acetamido-6-[(2R,3S,4R,5R,6R)-5-acetamido-2-(hydroxymethyl)-4,6-bis(oxidanyl)oxan-3-yl]oxy-2-(hydroxymethyl)-4-oxidanyl-oxan-3-yl]oxy-2-(hydroxymethyl)-4-oxidanyl-oxan-3-yl]oxy-6-(hydroxymethyl)-4,5-bis(oxidanyl)oxan-3-yl]-trimethyl-azanium

>  <Synonyms>
TMG-chitotriomycin

>  <Type>
NON-POLYMER

>  <Formula>
C33 H59 N4 O20

>  <MolecularWeight>
831.836

>  <ModifiedDate>
2013-01-11

>  <Parent>


>  <OneLetterCode>


>  <SubcomponentList>


>  <AmbiguousFlag>
N

>  <InChI>
InChI=1S/C33H58N4O20/c1-11(42)34-18-23(46)27(15(8-39)51-30(18)50)55-31-19(35-12(2)43)24(47)28(16(9-40)53-31)56-32-20(36-13(3)44)25(48)29(17(10-41)54-32)57-33-21(37(4,5)6)26(49)22(45)14(7-38)52-33/h14-33,38-41,45-50H,7-10H2,1-6H3,(H2-,34,35,36,42,43,44)/p+1/t14-,15-,16-,17-,18-,19-,20-,21-,22-,23-,24-,25-,26-,27-,28-,29-,30-,31+,32+,33+/m1/s1

>  <InChIKey>
WQUCMKJYZLSZGP-NDKNBMRYSA-O

>  <SMILES>
CC(=O)N[C@@H]1[C@H]([C@@H]([C@H](O[C@H]1O)CO)O[C@H]2[C@@H]([C@H]([C@@H]([C@H](O2)CO)O[C@H]3[C@@H]([C@H]([C@@H]([C@H](O3)CO)O[C@H]4[C@@H]([C@H]([C@@H]([C@H](O4)CO)O)O)[N+](C)(C)C)O)NC(=O)C)O)NC(=O)C)O

$$$$
