3VTR_TCG_A_601


 70 73  0  0  0  0  0  0  0  0999 V2000
  -34.4556   61.6464   42.0472 C   0  0  0  0  0  0  0  0  0  0  0  0
  -34.9467   62.7632   41.3084 O   0  0  0  0  0  0  0  0  0  0  0  0
  -34.8527   64.0359   41.9418 C   0  0  0  0  0  0  0  0  0  0  0  0
  -33.4303   64.3181   42.4208 C   0  0  0  0  0  0  0  0  0  0  0  0
  -32.8619   63.1844   43.2575 C   0  0  0  0  0  0  0  0  0  0  0  0
  -31.4580   63.3934   43.4396 O   0  0  0  0  0  0  0  0  0  0  0  0
  -33.0382   61.8394   42.5833 C   0  0  0  0  0  0  0  0  0  0  0  0
  -31.0162   63.3914   42.5761 H   0  0  0  0  0  0  0  0  0  0  0  0
  -32.8506   60.8565   43.6519 N   0  0  0  0  0  0  0  0  0  0  0  0
  -31.6507   60.3314   43.9204 C   0  0  0  0  0  0  0  0  0  0  0  0
  -31.5879   59.3352   45.0482 C   0  0  0  0  0  0  0  0  0  0  0  0
  -30.6441   60.6314   43.2849 O   0  0  0  0  0  0  0  0  0  0  0  0
  -33.6279   60.5749   44.1864 H   0  0  0  0  0  0  0  0  0  0  0  0
  -35.3153   65.0897   40.9385 C   0  0  0  0  0  0  0  0  0  0  0  0
  -36.0854   66.1109   41.6124 O   0  0  0  0  0  0  0  0  0  0  0  0
  -35.5353   66.5381   42.2874 H   0  0  0  0  0  0  0  0  0  0  0  0
  -34.3518   60.6225   41.0823 O   0  0  0  0  0  0  0  0  0  0  0  0
  -36.3427   59.0552   39.3672 C   0  0  0  0  0  0  0  0  0  0  0  0
  -36.4039   59.3799   40.8575 C   0  0  0  0  0  0  0  0  0  0  0  0
  -37.1614   58.3632   41.5234 O   0  0  0  0  0  0  0  0  0  0  0  0
  -35.0326   59.4624   41.5202 C   0  0  0  0  0  0  0  0  0  0  0  0
  -34.1301   58.2827   41.2236 C   0  0  0  0  0  0  0  0  0  0  0  0
  -34.7009   57.4769   40.1862 O   0  0  0  0  0  0  0  0  0  0  0  0
  -35.0685   58.2615   39.0360 C   0  0  0  0  0  0  0  0  0  0  0  0
  -35.3373   57.3755   37.9230 O   0  0  0  0  0  0  0  0  0  0  0  0
  -36.7146   57.5082   41.4216 H   0  0  0  0  0  0  0  0  0  0  0  0
  -36.0572   56.7697   38.1586 H   0  0  0  0  0  0  0  0  0  0  0  0
  -37.5709   59.4705   36.9937 O   0  0  0  0  0  0  0  0  0  0  0  0
  -36.9558   60.4179   37.4597 C   0  0  0  0  0  0  0  0  0  0  0  0
  -36.8976   61.7385   36.7370 C   0  0  0  0  0  0  0  0  0  0  0  0
  -36.3097   60.3190   38.6263 N   0  0  0  0  0  0  0  0  0  0  0  0
  -35.8148   61.0907   38.9853 H   0  0  0  0  0  0  0  0  0  0  0  0
  -33.9641   57.4906   42.5131 C   0  0  0  0  0  0  0  0  0  0  0  0
  -34.6699   58.1607   43.6043 O   0  0  0  0  0  0  0  0  0  0  0  0
  -35.6138   58.2220   43.3894 H   0  0  0  0  0  0  0  0  0  0  0  0
  -33.4965   65.4112   43.3085 O   0  0  0  0  0  0  0  0  0  0  0  0
  -32.2389   65.9897   43.6041 C   0  0  0  0  0  0  0  0  0  0  0  0
  -32.0235   65.9780   45.0184 O   0  0  0  0  0  0  0  0  0  0  0  0
  -30.7859   66.5754   45.4066 C   0  0  0  0  0  0  0  0  0  0  0  0
  -30.7404   68.0371   44.9529 C   0  0  0  0  0  0  0  0  0  0  0  0
  -31.0598   68.1527   43.4627 C   0  0  0  0  0  0  0  0  0  0  0  0
  -31.1698   69.5291   43.0688 O   0  0  0  0  0  0  0  0  0  0  0  0
  -32.3507   67.4234   43.1126 C   0  0  0  0  0  0  0  0  0  0  0  0
  -31.9019   69.9456   43.5500 H   0  0  0  0  0  0  0  0  0  0  0  0
  -32.4180   67.3382   41.6538 N   0  0  0  0  0  0  0  0  0  0  0  0
  -33.2723   68.0167   40.8673 C   0  0  0  0  0  0  0  0  0  0  0  0
  -34.2540   68.9543   41.5053 C   0  0  0  0  0  0  0  0  0  0  0  0
  -33.2541   67.8797   39.6558 O   0  0  0  0  0  0  0  0  0  0  0  0
  -31.7827   66.7316   41.2091 H   0  0  0  0  0  0  0  0  0  0  0  0
  -30.6667   66.4335   46.9152 C   0  0  0  0  0  0  0  0  0  0  0  0
  -29.3377   66.8033   47.3212 O   0  0  0  0  0  0  0  0  0  0  0  0
  -29.1653   67.7226   47.0643 H   0  0  0  0  0  0  0  0  0  0  0  0
  -29.4262   68.5618   45.0880 O   0  0  0  0  0  0  0  0  0  0  0  0
  -29.3066   69.8893   45.6029 C   0  0  0  0  0  0  0  0  0  0  0  0
  -28.0830   69.9000   46.5453 C   0  0  0  0  0  0  0  0  0  0  0  0
  -26.7659   70.2307   45.8247 C   0  0  0  0  0  0  0  0  0  0  0  0
  -25.7667   69.2685   46.1728 O   0  0  0  0  0  0  0  0  0  0  0  0
  -26.9519   70.2511   44.3171 C   0  0  0  0  0  0  0  0  0  0  0  0
  -25.7187   70.6227   43.6994 O   0  0  0  0  0  0  0  0  0  0  0  0
  -28.0423   71.2635   43.9903 C   0  0  0  0  0  0  0  0  0  0  0  0
  -29.3027   70.8881   44.5636 O   0  0  0  0  0  0  0  0  0  0  0  0
  -26.0537   68.3868   45.8880 H   0  0  0  0  0  0  0  0  0  0  0  0
  -25.4463   71.4963   44.0213 H   0  0  0  0  0  0  0  0  0  0  0  0
  -28.3165   70.7399   47.7518 N   0  0  0  0  0  0  0  0  0  0  0  0
  -27.5337   71.9887   47.6610 C   0  0  0  0  0  0  0  0  0  0  0  0
  -29.7318   71.0910   47.9799 C   0  0  0  0  0  0  0  0  0  0  0  0
  -27.8377   70.0253   48.9485 C   0  0  0  0  0  0  0  0  0  0  0  0
  -28.2107   71.4052   42.4867 C   0  0  0  0  0  0  0  0  0  0  0  0
  -28.9626   72.5994   42.2044 O   0  0  0  0  0  0  0  0  0  0  0  0
  -29.8339   72.5403   42.6266 H   0  0  0  0  0  0  0  0  0  0  0  0
 65 64  1  0  0  0
 67 64  1  0  0  0
 57 56  1  0  0  0
 64 55  1  0  0  0
 64 66  1  0  0  0
 55 56  1  0  0  0
 55 54  1  0  0  0
 56 58  1  0  0  0
 53 54  1  0  0  0
 53 40  1  0  0  0
 54 61  1  0  0  0
 15 14  1  0  0  0
 51 50  1  0  0  0
 14  3  1  0  0  0
 58 59  1  0  0  0
 58 60  1  0  0  0
 39 50  1  0  0  0
 39 40  1  0  0  0
 39 38  1  0  0  0
 40 41  1  0  0  0
 41 42  1  0  0  0
 41 43  1  0  0  0
 61 60  1  0  0  0
 37 38  1  0  0  0
 37 43  1  0  0  0
 37 36  1  0  0  0
 60 68  1  0  0  0
 45 43  1  0  0  0
 45 46  1  0  0  0
  3  4  1  0  0  0
  3  2  1  0  0  0
  4 36  1  0  0  0
  4  5  1  0  0  0
 34 33  1  0  0  0
  2  1  1  0  0  0
 48 46  2  0  0  0
  6  5  1  0  0  0
 46 47  1  0  0  0
 30 29  1  0  0  0
 17  1  1  0  0  0
 17 21  1  0  0  0
  7  5  1  0  0  0
  7  1  1  0  0  0
  7  9  1  0  0  0
 12 10  2  0  0  0
 68 69  1  0  0  0
 22 33  1  0  0  0
 22 23  1  0  0  0
 22 21  1  0  0  0
 31 29  1  0  0  0
 31 18  1  0  0  0
 24 23  1  0  0  0
 24 25  1  0  0  0
 24 18  1  0  0  0
 21 19  1  0  0  0
 29 28  2  0  0  0
 10  9  1  0  0  0
 10 11  1  0  0  0
 18 19  1  0  0  0
 19 20  1  0  0  0
 31 32  1  0  0  0
 20 26  1  0  0  0
 34 35  1  0  0  0
 25 27  1  0  0  0
 15 16  1  0  0  0
  6  8  1  0  0  0
  9 13  1  0  0  0
 51 52  1  0  0  0
 42 44  1  0  0  0
 45 49  1  0  0  0
 57 62  1  0  0  0
 59 63  1  0  0  0
 69 70  1  0  0  0
M  CHG 1  64   1
M  END
> <minimizedAffinity>
-8.44776

$$$$
3VTR_TCG_A_601


 70 73  0  0  0  0  0  0  0  0999 V2000
  -35.7428   61.2615   39.7959 C   0  0  0  0  0  0  0  0  0  0  0  0
  -34.9224   60.8293   40.8797 O   0  0  0  0  0  0  0  0  0  0  0  0
  -34.0148   61.7895   41.4126 C   0  0  0  0  0  0  0  0  0  0  0  0
  -34.7298   63.0851   41.7902 C   0  0  0  0  0  0  0  0  0  0  0  0
  -35.5871   63.6280   40.6594 C   0  0  0  0  0  0  0  0  0  0  0  0
  -36.4238   64.6731   41.1646 O   0  0  0  0  0  0  0  0  0  0  0  0
  -36.4918   62.5637   40.0733 C   0  0  0  0  0  0  0  0  0  0  0  0
  -37.0086   64.3157   41.8511 H   0  0  0  0  0  0  0  0  0  0  0  0
  -36.9089   63.0985   38.7759 N   0  0  0  0  0  0  0  0  0  0  0  0
  -38.0312   63.8120   38.6384 C   0  0  0  0  0  0  0  0  0  0  0  0
  -38.3469   64.3117   37.2532 C   0  0  0  0  0  0  0  0  0  0  0  0
  -38.7791   64.0505   39.5824 O   0  0  0  0  0  0  0  0  0  0  0  0
  -36.3486   62.9284   37.9844 H   0  0  0  0  0  0  0  0  0  0  0  0
  -33.3342   61.1620   42.6268 C   0  0  0  0  0  0  0  0  0  0  0  0
  -32.1009   60.5221   42.2277 O   0  0  0  0  0  0  0  0  0  0  0  0
  -31.5057   61.1818   41.8384 H   0  0  0  0  0  0  0  0  0  0  0  0
  -36.7418   60.2688   39.7119 O   0  0  0  0  0  0  0  0  0  0  0  0
  -36.2027   57.2572   39.7406 C   0  0  0  0  0  0  0  0  0  0  0  0
  -35.6053   58.3328   38.8370 C   0  0  0  0  0  0  0  0  0  0  0  0
  -35.2338   57.7367   37.5889 O   0  0  0  0  0  0  0  0  0  0  0  0
  -36.5610   59.4857   38.5478 C   0  0  0  0  0  0  0  0  0  0  0  0
  -37.9377   59.0487   38.0918 C   0  0  0  0  0  0  0  0  0  0  0  0
  -38.0888   57.6360   38.2721 O   0  0  0  0  0  0  0  0  0  0  0  0
  -37.7335   57.2225   39.6050 C   0  0  0  0  0  0  0  0  0  0  0  0
  -38.1986   55.8688   39.8220 O   0  0  0  0  0  0  0  0  0  0  0  0
  -36.0242   57.3835   37.1513 H   0  0  0  0  0  0  0  0  0  0  0  0
  -37.7913   55.2784   39.1690 H   0  0  0  0  0  0  0  0  0  0  0  0
  -33.7818   56.8347   40.8700 O   0  0  0  0  0  0  0  0  0  0  0  0
  -34.6339   57.3398   41.5855 C   0  0  0  0  0  0  0  0  0  0  0  0
  -34.3327   57.7021   43.0164 C   0  0  0  0  0  0  0  0  0  0  0  0
  -35.8656   57.5884   41.1276 N   0  0  0  0  0  0  0  0  0  0  0  0
  -36.5417   57.9915   41.7189 H   0  0  0  0  0  0  0  0  0  0  0  0
  -38.0868   59.4400   36.6281 C   0  0  0  0  0  0  0  0  0  0  0  0
  -39.3206   58.8747   36.0840 O   0  0  0  0  0  0  0  0  0  0  0  0
  -40.0798   59.2160   36.5820 H   0  0  0  0  0  0  0  0  0  0  0  0
  -33.7390   64.0690   41.9840 O   0  0  0  0  0  0  0  0  0  0  0  0
  -33.9033   64.8259   43.1688 C   0  0  0  0  0  0  0  0  0  0  0  0
  -34.4861   66.0939   42.8538 O   0  0  0  0  0  0  0  0  0  0  0  0
  -34.6573   66.9362   43.9942 C   0  0  0  0  0  0  0  0  0  0  0  0
  -33.3037   67.2107   44.6552 C   0  0  0  0  0  0  0  0  0  0  0  0
  -32.5633   65.9039   44.9382 C   0  0  0  0  0  0  0  0  0  0  0  0
  -31.2335   66.1626   45.4142 O   0  0  0  0  0  0  0  0  0  0  0  0
  -32.4920   65.0250   43.6959 C   0  0  0  0  0  0  0  0  0  0  0  0
  -30.7309   66.6322   44.7303 H   0  0  0  0  0  0  0  0  0  0  0  0
  -32.0392   63.7023   44.1266 N   0  0  0  0  0  0  0  0  0  0  0  0
  -30.8138   63.1878   43.9214 C   0  0  0  0  0  0  0  0  0  0  0  0
  -29.7946   64.0139   43.1943 C   0  0  0  0  0  0  0  0  0  0  0  0
  -30.5272   62.0710   44.3184 O   0  0  0  0  0  0  0  0  0  0  0  0
  -32.6880   63.1400   44.6084 H   0  0  0  0  0  0  0  0  0  0  0  0
  -35.3389   68.2094   43.5201 C   0  0  0  0  0  0  0  0  0  0  0  0
  -34.5293   68.8295   42.5064 O   0  0  0  0  0  0  0  0  0  0  0  0
  -34.4213   68.2189   41.7605 H   0  0  0  0  0  0  0  0  0  0  0  0
  -33.4830   67.8140   45.9298 O   0  0  0  0  0  0  0  0  0  0  0  0
  -32.6319   68.9155   46.2525 C   0  0  0  0  0  0  0  0  0  0  0  0
  -33.4669   69.8976   47.1033 C   0  0  0  0  0  0  0  0  0  0  0  0
  -33.3955   69.6055   48.6109 C   0  0  0  0  0  0  0  0  0  0  0  0
  -34.7146   69.5743   49.1629 O   0  0  0  0  0  0  0  0  0  0  0  0
  -32.6963   68.2847   48.8844 C   0  0  0  0  0  0  0  0  0  0  0  0
  -32.6010   68.0905   50.2964 O   0  0  0  0  0  0  0  0  0  0  0  0
  -31.3097   68.3465   48.2564 C   0  0  0  0  0  0  0  0  0  0  0  0
  -31.3800   68.4970   46.8314 O   0  0  0  0  0  0  0  0  0  0  0  0
  -35.2247   68.8651   48.7415 H   0  0  0  0  0  0  0  0  0  0  0  0
  -32.1071   68.8261   50.6913 H   0  0  0  0  0  0  0  0  0  0  0  0
  -33.1695   71.3170   46.7678 N   0  0  0  0  0  0  0  0  0  0  0  0
  -32.5329   71.4025   45.4382 C   0  0  0  0  0  0  0  0  0  0  0  0
  -34.3511   72.2014   46.7781 C   0  0  0  0  0  0  0  0  0  0  0  0
  -32.2008   71.8588   47.7375 C   0  0  0  0  0  0  0  0  0  0  0  0
  -30.5178   67.0901   48.5780 C   0  0  0  0  0  0  0  0  0  0  0  0
  -31.4004   65.9537   48.5515 O   0  0  0  0  0  0  0  0  0  0  0  0
  -32.1029   66.0745   49.2093 H   0  0  0  0  0  0  0  0  0  0  0  0
 65 64  1  0  0  0
 67 64  1  0  0  0
 57 56  1  0  0  0
 64 55  1  0  0  0
 64 66  1  0  0  0
 55 56  1  0  0  0
 55 54  1  0  0  0
 56 58  1  0  0  0
 53 54  1  0  0  0
 53 40  1  0  0  0
 54 61  1  0  0  0
 15 14  1  0  0  0
 51 50  1  0  0  0
 14  3  1  0  0  0
 58 59  1  0  0  0
 58 60  1  0  0  0
 39 50  1  0  0  0
 39 40  1  0  0  0
 39 38  1  0  0  0
 40 41  1  0  0  0
 41 42  1  0  0  0
 41 43  1  0  0  0
 61 60  1  0  0  0
 37 38  1  0  0  0
 37 43  1  0  0  0
 37 36  1  0  0  0
 60 68  1  0  0  0
 45 43  1  0  0  0
 45 46  1  0  0  0
  3  4  1  0  0  0
  3  2  1  0  0  0
  4 36  1  0  0  0
  4  5  1  0  0  0
 34 33  1  0  0  0
  2  1  1  0  0  0
 48 46  2  0  0  0
  6  5  1  0  0  0
 46 47  1  0  0  0
 30 29  1  0  0  0
 17  1  1  0  0  0
 17 21  1  0  0  0
  7  5  1  0  0  0
  7  1  1  0  0  0
  7  9  1  0  0  0
 12 10  2  0  0  0
 68 69  1  0  0  0
 22 33  1  0  0  0
 22 23  1  0  0  0
 22 21  1  0  0  0
 31 29  1  0  0  0
 31 18  1  0  0  0
 24 23  1  0  0  0
 24 25  1  0  0  0
 24 18  1  0  0  0
 21 19  1  0  0  0
 29 28  2  0  0  0
 10  9  1  0  0  0
 10 11  1  0  0  0
 18 19  1  0  0  0
 19 20  1  0  0  0
 31 32  1  0  0  0
 20 26  1  0  0  0
 34 35  1  0  0  0
 25 27  1  0  0  0
 15 16  1  0  0  0
  6  8  1  0  0  0
  9 13  1  0  0  0
 51 52  1  0  0  0
 42 44  1  0  0  0
 45 49  1  0  0  0
 57 62  1  0  0  0
 59 63  1  0  0  0
 69 70  1  0  0  0
M  CHG 1  64   1
M  END
> <minimizedAffinity>
-8.42933

$$$$
3VTR_TCG_A_601


 70 73  0  0  0  0  0  0  0  0999 V2000
  -35.3070   61.0090   41.4174 C   0  0  0  0  0  0  0  0  0  0  0  0
  -36.2851   61.6158   40.5752 O   0  0  0  0  0  0  0  0  0  0  0  0
  -36.6882   62.9384   40.9190 C   0  0  0  0  0  0  0  0  0  0  0  0
  -35.4858   63.8681   41.0679 C   0  0  0  0  0  0  0  0  0  0  0  0
  -34.4226   63.3016   41.9938 C   0  0  0  0  0  0  0  0  0  0  0  0
  -33.2306   64.0841   41.8741 O   0  0  0  0  0  0  0  0  0  0  0  0
  -34.0665   61.8724   41.6397 C   0  0  0  0  0  0  0  0  0  0  0  0
  -32.9029   64.0368   40.9624 H   0  0  0  0  0  0  0  0  0  0  0  0
  -33.3916   61.3484   42.8284 N   0  0  0  0  0  0  0  0  0  0  0  0
  -32.1996   60.7476   42.7516 C   0  0  0  0  0  0  0  0  0  0  0  0
  -31.6072   60.2573   44.0465 C   0  0  0  0  0  0  0  0  0  0  0  0
  -31.6091   60.5909   41.6867 O   0  0  0  0  0  0  0  0  0  0  0  0
  -33.8265   61.4407   43.7068 H   0  0  0  0  0  0  0  0  0  0  0  0
  -37.6358   63.4336   39.8291 C   0  0  0  0  0  0  0  0  0  0  0  0
  -38.6777   64.2491   40.4116 O   0  0  0  0  0  0  0  0  0  0  0  0
  -38.2794   65.0145   40.8549 H   0  0  0  0  0  0  0  0  0  0  0  0
  -34.8587   59.8999   40.6696 O   0  0  0  0  0  0  0  0  0  0  0  0
  -35.9750   57.4466   39.2217 C   0  0  0  0  0  0  0  0  0  0  0  0
  -36.3713   58.0268   40.5769 C   0  0  0  0  0  0  0  0  0  0  0  0
  -36.8806   56.9728   41.4021 O   0  0  0  0  0  0  0  0  0  0  0  0
  -35.2156   58.6934   41.3160 C   0  0  0  0  0  0  0  0  0  0  0  0
  -33.9617   57.8475   41.3953 C   0  0  0  0  0  0  0  0  0  0  0  0
  -34.0854   56.7054   40.5399 O   0  0  0  0  0  0  0  0  0  0  0  0
  -34.4840   57.0729   39.2058 C   0  0  0  0  0  0  0  0  0  0  0  0
  -34.2876   55.9423   38.3232 O   0  0  0  0  0  0  0  0  0  0  0  0
  -36.1847   56.3136   41.5508 H   0  0  0  0  0  0  0  0  0  0  0  0
  -34.8172   55.1922   38.6358 H   0  0  0  0  0  0  0  0  0  0  0  0
  -38.3851   57.9871   38.1198 O   0  0  0  0  0  0  0  0  0  0  0  0
  -37.4443   58.6594   37.7245 C   0  0  0  0  0  0  0  0  0  0  0  0
  -37.6368   59.7280   36.6802 C   0  0  0  0  0  0  0  0  0  0  0  0
  -36.2090   58.4716   38.2011 N   0  0  0  0  0  0  0  0  0  0  0  0
  -35.4614   59.0188   37.8682 H   0  0  0  0  0  0  0  0  0  0  0  0
  -33.7727   57.4342   42.8482 C   0  0  0  0  0  0  0  0  0  0  0  0
  -34.5142   58.3396   43.7248 O   0  0  0  0  0  0  0  0  0  0  0  0
  -35.4582   58.3016   43.5048 H   0  0  0  0  0  0  0  0  0  0  0  0
  -35.9360   65.0335   41.7209 O   0  0  0  0  0  0  0  0  0  0  0  0
  -35.7907   66.2151   40.9551 C   0  0  0  0  0  0  0  0  0  0  0  0
  -34.4096   66.5831   40.8939 O   0  0  0  0  0  0  0  0  0  0  0  0
  -34.1773   67.7879   40.1634 C   0  0  0  0  0  0  0  0  0  0  0  0
  -34.9288   68.9525   40.8141 C   0  0  0  0  0  0  0  0  0  0  0  0
  -36.4041   68.6045   41.0097 C   0  0  0  0  0  0  0  0  0  0  0  0
  -37.0764   69.6298   41.7571 O   0  0  0  0  0  0  0  0  0  0  0  0
  -36.5704   67.2691   41.7236 C   0  0  0  0  0  0  0  0  0  0  0  0
  -36.6806   69.6985   42.6400 H   0  0  0  0  0  0  0  0  0  0  0  0
  -37.9774   66.8866   41.6046 N   0  0  0  0  0  0  0  0  0  0  0  0
  -38.8207   66.6712   42.6298 C   0  0  0  0  0  0  0  0  0  0  0  0
  -38.3113   66.8306   44.0316 C   0  0  0  0  0  0  0  0  0  0  0  0
  -39.9814   66.3539   42.4319 O   0  0  0  0  0  0  0  0  0  0  0  0
  -38.3382   66.7775   40.6951 H   0  0  0  0  0  0  0  0  0  0  0  0
  -32.6749   68.0155   40.1286 C   0  0  0  0  0  0  0  0  0  0  0  0
  -32.0701   67.3508   41.2511 O   0  0  0  0  0  0  0  0  0  0  0  0
  -32.2584   66.4005   41.2040 H   0  0  0  0  0  0  0  0  0  0  0  0
  -34.9301   70.0873   39.9579 O   0  0  0  0  0  0  0  0  0  0  0  0
  -35.7257   70.0066   38.7737 C   0  0  0  0  0  0  0  0  0  0  0  0
  -36.0688   71.4545   38.3602 C   0  0  0  0  0  0  0  0  0  0  0  0
  -35.0229   72.0817   37.4243 C   0  0  0  0  0  0  0  0  0  0  0  0
  -34.6477   73.3733   37.9107 O   0  0  0  0  0  0  0  0  0  0  0  0
  -33.7896   71.2023   37.3072 C   0  0  0  0  0  0  0  0  0  0  0  0
  -32.8783   71.7968   36.3818 O   0  0  0  0  0  0  0  0  0  0  0  0
  -34.2339   69.8302   36.8165 C   0  0  0  0  0  0  0  0  0  0  0  0
  -35.1162   69.1935   37.7515 O   0  0  0  0  0  0  0  0  0  0  0  0
  -34.2506   73.2844   38.7912 H   0  0  0  0  0  0  0  0  0  0  0  0
  -33.3110   71.8941   35.5191 H   0  0  0  0  0  0  0  0  0  0  0  0
  -37.4602   71.5716   37.8444 N   0  0  0  0  0  0  0  0  0  0  0  0
  -38.2646   70.4142   38.2845 C   0  0  0  0  0  0  0  0  0  0  0  0
  -38.1555   72.8072   38.2546 C   0  0  0  0  0  0  0  0  0  0  0  0
  -37.4426   71.5402   36.3710 C   0  0  0  0  0  0  0  0  0  0  0  0
  -33.0333   68.9283   36.5832 C   0  0  0  0  0  0  0  0  0  0  0  0
  -32.4420   69.2461   35.3103 O   0  0  0  0  0  0  0  0  0  0  0  0
  -33.0955   69.1085   34.6068 H   0  0  0  0  0  0  0  0  0  0  0  0
 65 64  1  0  0  0
 67 64  1  0  0  0
 57 56  1  0  0  0
 64 55  1  0  0  0
 64 66  1  0  0  0
 55 56  1  0  0  0
 55 54  1  0  0  0
 56 58  1  0  0  0
 53 54  1  0  0  0
 53 40  1  0  0  0
 54 61  1  0  0  0
 15 14  1  0  0  0
 51 50  1  0  0  0
 14  3  1  0  0  0
 58 59  1  0  0  0
 58 60  1  0  0  0
 39 50  1  0  0  0
 39 40  1  0  0  0
 39 38  1  0  0  0
 40 41  1  0  0  0
 41 42  1  0  0  0
 41 43  1  0  0  0
 61 60  1  0  0  0
 37 38  1  0  0  0
 37 43  1  0  0  0
 37 36  1  0  0  0
 60 68  1  0  0  0
 45 43  1  0  0  0
 45 46  1  0  0  0
  3  4  1  0  0  0
  3  2  1  0  0  0
  4 36  1  0  0  0
  4  5  1  0  0  0
 34 33  1  0  0  0
  2  1  1  0  0  0
 48 46  2  0  0  0
  6  5  1  0  0  0
 46 47  1  0  0  0
 30 29  1  0  0  0
 17  1  1  0  0  0
 17 21  1  0  0  0
  7  5  1  0  0  0
  7  1  1  0  0  0
  7  9  1  0  0  0
 12 10  2  0  0  0
 68 69  1  0  0  0
 22 33  1  0  0  0
 22 23  1  0  0  0
 22 21  1  0  0  0
 31 29  1  0  0  0
 31 18  1  0  0  0
 24 23  1  0  0  0
 24 25  1  0  0  0
 24 18  1  0  0  0
 21 19  1  0  0  0
 29 28  2  0  0  0
 10  9  1  0  0  0
 10 11  1  0  0  0
 18 19  1  0  0  0
 19 20  1  0  0  0
 31 32  1  0  0  0
 20 26  1  0  0  0
 34 35  1  0  0  0
 25 27  1  0  0  0
 15 16  1  0  0  0
  6  8  1  0  0  0
  9 13  1  0  0  0
 51 52  1  0  0  0
 42 44  1  0  0  0
 45 49  1  0  0  0
 57 62  1  0  0  0
 59 63  1  0  0  0
 69 70  1  0  0  0
M  CHG 1  64   1
M  END
> <minimizedAffinity>
-8.36080

$$$$
3VTR_TCG_A_601


 70 73  0  0  0  0  0  0  0  0999 V2000
  -35.4789   61.3815   40.0220 C   0  0  0  0  0  0  0  0  0  0  0  0
  -34.6116   60.9984   41.0875 O   0  0  0  0  0  0  0  0  0  0  0  0
  -33.7378   62.0053   41.5898 C   0  0  0  0  0  0  0  0  0  0  0  0
  -34.5042   63.2686   41.9759 C   0  0  0  0  0  0  0  0  0  0  0  0
  -35.4148   63.7602   40.8634 C   0  0  0  0  0  0  0  0  0  0  0  0
  -36.2876   64.7686   41.3821 O   0  0  0  0  0  0  0  0  0  0  0  0
  -36.2821   62.6489   40.3087 C   0  0  0  0  0  0  0  0  0  0  0  0
  -36.8370   64.3897   42.0860 H   0  0  0  0  0  0  0  0  0  0  0  0
  -36.7569   63.1519   39.0185 N   0  0  0  0  0  0  0  0  0  0  0  0
  -37.8979   63.8404   38.9101 C   0  0  0  0  0  0  0  0  0  0  0  0
  -38.2739   64.3087   37.5289 C   0  0  0  0  0  0  0  0  0  0  0  0
  -38.6157   64.0809   39.8766 O   0  0  0  0  0  0  0  0  0  0  0  0
  -36.2224   62.9788   38.2101 H   0  0  0  0  0  0  0  0  0  0  0  0
  -32.9975   61.4215   42.7908 C   0  0  0  0  0  0  0  0  0  0  0  0
  -31.5844   61.7095   42.6895 O   0  0  0  0  0  0  0  0  0  0  0  0
  -31.4506   62.6700   42.6729 H   0  0  0  0  0  0  0  0  0  0  0  0
  -36.4309   60.3417   39.9711 O   0  0  0  0  0  0  0  0  0  0  0  0
  -36.1445   57.2962   39.9051 C   0  0  0  0  0  0  0  0  0  0  0  0
  -35.4271   58.3483   39.0633 C   0  0  0  0  0  0  0  0  0  0  0  0
  -35.0603   57.7666   37.8070 O   0  0  0  0  0  0  0  0  0  0  0  0
  -36.2727   59.5868   38.7853 C   0  0  0  0  0  0  0  0  0  0  0  0
  -37.6630   59.2832   38.2666 C   0  0  0  0  0  0  0  0  0  0  0  0
  -37.9371   57.8827   38.3885 O   0  0  0  0  0  0  0  0  0  0  0  0
  -37.6669   57.3951   39.7163 C   0  0  0  0  0  0  0  0  0  0  0  0
  -38.2501   56.0785   39.8665 O   0  0  0  0  0  0  0  0  0  0  0  0
  -35.8605   57.4964   37.3299 H   0  0  0  0  0  0  0  0  0  0  0  0
  -37.8692   55.4789   39.2060 H   0  0  0  0  0  0  0  0  0  0  0  0
  -33.7172   56.9011   41.0306 O   0  0  0  0  0  0  0  0  0  0  0  0
  -34.5954   57.3228   41.7682 C   0  0  0  0  0  0  0  0  0  0  0  0
  -34.3212   57.6030   43.2228 C   0  0  0  0  0  0  0  0  0  0  0  0
  -35.8327   57.5497   41.3142 N   0  0  0  0  0  0  0  0  0  0  0  0
  -36.5299   57.8851   41.9231 H   0  0  0  0  0  0  0  0  0  0  0  0
  -37.7249   59.7359   36.8144 C   0  0  0  0  0  0  0  0  0  0  0  0
  -36.4051   60.1877   36.3762 O   0  0  0  0  0  0  0  0  0  0  0  0
  -35.7712   59.4575   36.4537 H   0  0  0  0  0  0  0  0  0  0  0  0
  -33.5571   64.3002   42.1368 O   0  0  0  0  0  0  0  0  0  0  0  0
  -33.8354   65.1743   43.2148 C   0  0  0  0  0  0  0  0  0  0  0  0
  -34.6223   66.2756   42.7516 O   0  0  0  0  0  0  0  0  0  0  0  0
  -34.9219   67.2260   43.7745 C   0  0  0  0  0  0  0  0  0  0  0  0
  -33.6275   67.8047   44.3525 C   0  0  0  0  0  0  0  0  0  0  0  0
  -32.6790   66.6867   44.7845 C   0  0  0  0  0  0  0  0  0  0  0  0
  -31.4069   67.2209   45.1821 O   0  0  0  0  0  0  0  0  0  0  0  0
  -32.4726   65.6706   43.6685 C   0  0  0  0  0  0  0  0  0  0  0  0
  -30.9940   67.6687   44.4271 H   0  0  0  0  0  0  0  0  0  0  0  0
  -31.8041   64.5103   44.2575 N   0  0  0  0  0  0  0  0  0  0  0  0
  -30.5174   64.1674   44.0691 C   0  0  0  0  0  0  0  0  0  0  0  0
  -29.6610   65.0274   43.1875 C   0  0  0  0  0  0  0  0  0  0  0  0
  -30.0465   63.1779   44.6039 O   0  0  0  0  0  0  0  0  0  0  0  0
  -32.3428   63.9301   44.8425 H   0  0  0  0  0  0  0  0  0  0  0  0
  -35.8083   68.2947   43.1559 C   0  0  0  0  0  0  0  0  0  0  0  0
  -35.9557   69.3823   44.0848 O   0  0  0  0  0  0  0  0  0  0  0  0
  -35.0836   69.7564   44.2857 H   0  0  0  0  0  0  0  0  0  0  0  0
  -33.8946   68.5384   45.5404 O   0  0  0  0  0  0  0  0  0  0  0  0
  -34.0563   67.7874   46.7452 C   0  0  0  0  0  0  0  0  0  0  0  0
  -33.6390   68.7095   47.9118 C   0  0  0  0  0  0  0  0  0  0  0  0
  -34.8013   69.5491   48.4664 C   0  0  0  0  0  0  0  0  0  0  0  0
  -34.4077   70.9208   48.5619 O   0  0  0  0  0  0  0  0  0  0  0  0
  -36.0349   69.4320   47.5875 C   0  0  0  0  0  0  0  0  0  0  0  0
  -37.1010   70.1777   48.1772 O   0  0  0  0  0  0  0  0  0  0  0  0
  -36.4034   67.9572   47.4864 C   0  0  0  0  0  0  0  0  0  0  0  0
  -35.3651   67.1939   46.8562 O   0  0  0  0  0  0  0  0  0  0  0  0
  -34.1871   71.2561   47.6788 H   0  0  0  0  0  0  0  0  0  0  0  0
  -37.2820   69.8351   49.0664 H   0  0  0  0  0  0  0  0  0  0  0  0
  -32.8960   67.9695   48.9683 N   0  0  0  0  0  0  0  0  0  0  0  0
  -32.2224   66.7917   48.3857 C   0  0  0  0  0  0  0  0  0  0  0  0
  -31.8882   68.7800   49.6795 C   0  0  0  0  0  0  0  0  0  0  0  0
  -33.8465   67.4607   49.9732 C   0  0  0  0  0  0  0  0  0  0  0  0
  -37.6905   67.7778   46.6988 C   0  0  0  0  0  0  0  0  0  0  0  0
  -37.9297   68.9555   45.9070 O   0  0  0  0  0  0  0  0  0  0  0  0
  -38.0084   69.7267   46.4902 H   0  0  0  0  0  0  0  0  0  0  0  0
 65 64  1  0  0  0
 67 64  1  0  0  0
 57 56  1  0  0  0
 64 55  1  0  0  0
 64 66  1  0  0  0
 55 56  1  0  0  0
 55 54  1  0  0  0
 56 58  1  0  0  0
 53 54  1  0  0  0
 53 40  1  0  0  0
 54 61  1  0  0  0
 15 14  1  0  0  0
 51 50  1  0  0  0
 14  3  1  0  0  0
 58 59  1  0  0  0
 58 60  1  0  0  0
 39 50  1  0  0  0
 39 40  1  0  0  0
 39 38  1  0  0  0
 40 41  1  0  0  0
 41 42  1  0  0  0
 41 43  1  0  0  0
 61 60  1  0  0  0
 37 38  1  0  0  0
 37 43  1  0  0  0
 37 36  1  0  0  0
 60 68  1  0  0  0
 45 43  1  0  0  0
 45 46  1  0  0  0
  3  4  1  0  0  0
  3  2  1  0  0  0
  4 36  1  0  0  0
  4  5  1  0  0  0
 34 33  1  0  0  0
  2  1  1  0  0  0
 48 46  2  0  0  0
  6  5  1  0  0  0
 46 47  1  0  0  0
 30 29  1  0  0  0
 17  1  1  0  0  0
 17 21  1  0  0  0
  7  5  1  0  0  0
  7  1  1  0  0  0
  7  9  1  0  0  0
 12 10  2  0  0  0
 68 69  1  0  0  0
 22 33  1  0  0  0
 22 23  1  0  0  0
 22 21  1  0  0  0
 31 29  1  0  0  0
 31 18  1  0  0  0
 24 23  1  0  0  0
 24 25  1  0  0  0
 24 18  1  0  0  0
 21 19  1  0  0  0
 29 28  2  0  0  0
 10  9  1  0  0  0
 10 11  1  0  0  0
 18 19  1  0  0  0
 19 20  1  0  0  0
 31 32  1  0  0  0
 20 26  1  0  0  0
 34 35  1  0  0  0
 25 27  1  0  0  0
 15 16  1  0  0  0
  6  8  1  0  0  0
  9 13  1  0  0  0
 51 52  1  0  0  0
 42 44  1  0  0  0
 45 49  1  0  0  0
 57 62  1  0  0  0
 59 63  1  0  0  0
 69 70  1  0  0  0
M  CHG 1  64   1
M  END
> <minimizedAffinity>
-8.27746

$$$$
3VTR_TCG_A_601


 70 73  0  0  0  0  0  0  0  0999 V2000
  -34.0991   67.4118   45.8466 C   0  0  0  0  0  0  0  0  0  0  0  0
  -33.0575   67.7181   44.9216 O   0  0  0  0  0  0  0  0  0  0  0  0
  -33.2571   67.2951   43.5759 C   0  0  0  0  0  0  0  0  0  0  0  0
  -34.5956   67.7860   43.0284 C   0  0  0  0  0  0  0  0  0  0  0  0
  -35.7590   67.4488   43.9456 C   0  0  0  0  0  0  0  0  0  0  0  0
  -36.9209   68.1627   43.5121 O   0  0  0  0  0  0  0  0  0  0  0  0
  -35.4852   67.8529   45.3797 C   0  0  0  0  0  0  0  0  0  0  0  0
  -36.7527   69.1165   43.5648 H   0  0  0  0  0  0  0  0  0  0  0  0
  -36.4596   67.1025   46.1736 N   0  0  0  0  0  0  0  0  0  0  0  0
  -37.5914   67.6645   46.6105 C   0  0  0  0  0  0  0  0  0  0  0  0
  -38.5148   66.7853   47.4122 C   0  0  0  0  0  0  0  0  0  0  0  0
  -37.8740   68.8374   46.3832 O   0  0  0  0  0  0  0  0  0  0  0  0
  -36.2770   66.1599   46.3914 H   0  0  0  0  0  0  0  0  0  0  0  0
  -32.0930   67.8275   42.7437 C   0  0  0  0  0  0  0  0  0  0  0  0
  -31.8844   66.9850   41.5876 O   0  0  0  0  0  0  0  0  0  0  0  0
  -32.6863   66.9808   41.0418 H   0  0  0  0  0  0  0  0  0  0  0  0
  -33.8078   68.2225   46.9638 O   0  0  0  0  0  0  0  0  0  0  0  0
  -30.8932   68.0914   47.8851 C   0  0  0  0  0  0  0  0  0  0  0  0
  -31.9223   66.9683   47.7866 C   0  0  0  0  0  0  0  0  0  0  0  0
  -31.5995   65.9572   48.7482 O   0  0  0  0  0  0  0  0  0  0  0  0
  -33.3536   67.4289   48.0430 C   0  0  0  0  0  0  0  0  0  0  0  0
  -33.5214   68.2563   49.3006 C   0  0  0  0  0  0  0  0  0  0  0  0
  -32.2385   68.6129   49.8281 O   0  0  0  0  0  0  0  0  0  0  0  0
  -31.3891   69.2017   48.8254 C   0  0  0  0  0  0  0  0  0  0  0  0
  -30.2505   69.8202   49.4713 O   0  0  0  0  0  0  0  0  0  0  0  0
  -31.6504   66.3322   49.6413 H   0  0  0  0  0  0  0  0  0  0  0  0
  -29.7604   69.1505   49.9735 H   0  0  0  0  0  0  0  0  0  0  0  0
  -28.5405   69.0153   46.9227 O   0  0  0  0  0  0  0  0  0  0  0  0
  -29.5005   69.0866   46.1700 C   0  0  0  0  0  0  0  0  0  0  0  0
  -29.3610   69.6599   44.7838 C   0  0  0  0  0  0  0  0  0  0  0  0
  -30.7108   68.6611   46.5475 N   0  0  0  0  0  0  0  0  0  0  0  0
  -31.4748   68.7301   45.9303 H   0  0  0  0  0  0  0  0  0  0  0  0
  -34.3200   67.4277   50.2972 C   0  0  0  0  0  0  0  0  0  0  0  0
  -35.6844   67.2371   49.8072 O   0  0  0  0  0  0  0  0  0  0  0  0
  -35.6603   66.7722   48.9562 H   0  0  0  0  0  0  0  0  0  0  0  0
  -34.8566   67.0607   41.8481 O   0  0  0  0  0  0  0  0  0  0  0  0
  -35.1782   65.6998   42.0680 C   0  0  0  0  0  0  0  0  0  0  0  0
  -33.9829   64.9138   42.0548 O   0  0  0  0  0  0  0  0  0  0  0  0
  -34.2222   63.5180   42.2382 C   0  0  0  0  0  0  0  0  0  0  0  0
  -35.1268   62.9868   41.1229 C   0  0  0  0  0  0  0  0  0  0  0  0
  -36.3918   63.8357   41.0000 C   0  0  0  0  0  0  0  0  0  0  0  0
  -37.1663   63.4364   39.8587 O   0  0  0  0  0  0  0  0  0  0  0  0
  -36.0581   65.3179   40.8893 C   0  0  0  0  0  0  0  0  0  0  0  0
  -36.6485   63.5785   39.0508 H   0  0  0  0  0  0  0  0  0  0  0  0
  -37.3070   66.0577   41.0707 N   0  0  0  0  0  0  0  0  0  0  0  0
  -37.8759   66.8706   40.1628 C   0  0  0  0  0  0  0  0  0  0  0  0
  -37.2020   67.0570   38.8357 C   0  0  0  0  0  0  0  0  0  0  0  0
  -38.9223   67.4477   40.4051 O   0  0  0  0  0  0  0  0  0  0  0  0
  -37.7714   65.9514   41.9323 H   0  0  0  0  0  0  0  0  0  0  0  0
  -32.8696   62.8252   42.2660 C   0  0  0  0  0  0  0  0  0  0  0  0
  -31.8366   63.8117   42.4317 O   0  0  0  0  0  0  0  0  0  0  0  0
  -31.9766   64.2898   43.2640 H   0  0  0  0  0  0  0  0  0  0  0  0
  -35.5910   61.6801   41.4355 O   0  0  0  0  0  0  0  0  0  0  0  0
  -34.7344   60.5879   41.0960 C   0  0  0  0  0  0  0  0  0  0  0  0
  -35.3239   59.3266   41.7645 C   0  0  0  0  0  0  0  0  0  0  0  0
  -36.3457   58.5934   40.8804 C   0  0  0  0  0  0  0  0  0  0  0  0
  -37.5334   58.3248   41.6307 O   0  0  0  0  0  0  0  0  0  0  0  0
  -36.6945   59.4095   39.6474 C   0  0  0  0  0  0  0  0  0  0  0  0
  -37.5962   58.6604   38.8312 O   0  0  0  0  0  0  0  0  0  0  0  0
  -35.4029   59.6997   38.8934 C   0  0  0  0  0  0  0  0  0  0  0  0
  -34.4980   60.4898   39.6776 O   0  0  0  0  0  0  0  0  0  0  0  0
  -37.9294   59.1618   41.9198 H   0  0  0  0  0  0  0  0  0  0  0  0
  -37.1818   57.8206   38.5784 H   0  0  0  0  0  0  0  0  0  0  0  0
  -34.2615   58.4302   42.2968 N   0  0  0  0  0  0  0  0  0  0  0  0
  -34.7145   57.7930   43.5495 C   0  0  0  0  0  0  0  0  0  0  0  0
  -33.8382   57.3710   41.3602 C   0  0  0  0  0  0  0  0  0  0  0  0
  -33.0687   59.2276   42.6340 C   0  0  0  0  0  0  0  0  0  0  0  0
  -35.6925   60.4317   37.5936 C   0  0  0  0  0  0  0  0  0  0  0  0
  -36.7831   61.3481   37.7985 O   0  0  0  0  0  0  0  0  0  0  0  0
  -37.5706   60.8560   38.0788 H   0  0  0  0  0  0  0  0  0  0  0  0
 65 64  1  0  0  0
 67 64  1  0  0  0
 57 56  1  0  0  0
 64 55  1  0  0  0
 64 66  1  0  0  0
 55 56  1  0  0  0
 55 54  1  0  0  0
 56 58  1  0  0  0
 53 54  1  0  0  0
 53 40  1  0  0  0
 54 61  1  0  0  0
 15 14  1  0  0  0
 51 50  1  0  0  0
 14  3  1  0  0  0
 58 59  1  0  0  0
 58 60  1  0  0  0
 39 50  1  0  0  0
 39 40  1  0  0  0
 39 38  1  0  0  0
 40 41  1  0  0  0
 41 42  1  0  0  0
 41 43  1  0  0  0
 61 60  1  0  0  0
 37 38  1  0  0  0
 37 43  1  0  0  0
 37 36  1  0  0  0
 60 68  1  0  0  0
 45 43  1  0  0  0
 45 46  1  0  0  0
  3  4  1  0  0  0
  3  2  1  0  0  0
  4 36  1  0  0  0
  4  5  1  0  0  0
 34 33  1  0  0  0
  2  1  1  0  0  0
 48 46  2  0  0  0
  6  5  1  0  0  0
 46 47  1  0  0  0
 30 29  1  0  0  0
 17  1  1  0  0  0
 17 21  1  0  0  0
  7  5  1  0  0  0
  7  1  1  0  0  0
  7  9  1  0  0  0
 12 10  2  0  0  0
 68 69  1  0  0  0
 22 33  1  0  0  0
 22 23  1  0  0  0
 22 21  1  0  0  0
 31 29  1  0  0  0
 31 18  1  0  0  0
 24 23  1  0  0  0
 24 25  1  0  0  0
 24 18  1  0  0  0
 21 19  1  0  0  0
 29 28  2  0  0  0
 10  9  1  0  0  0
 10 11  1  0  0  0
 18 19  1  0  0  0
 19 20  1  0  0  0
 31 32  1  0  0  0
 20 26  1  0  0  0
 34 35  1  0  0  0
 25 27  1  0  0  0
 15 16  1  0  0  0
  6  8  1  0  0  0
  9 13  1  0  0  0
 51 52  1  0  0  0
 42 44  1  0  0  0
 45 49  1  0  0  0
 57 62  1  0  0  0
 59 63  1  0  0  0
 69 70  1  0  0  0
M  CHG 1  64   1
M  END
> <minimizedAffinity>
-7.93859

$$$$
3VTR_TCG_A_601


 70 73  0  0  0  0  0  0  0  0999 V2000
  -33.2567   67.5192   45.8816 C   0  0  0  0  0  0  0  0  0  0  0  0
  -32.2855   67.5327   44.8372 O   0  0  0  0  0  0  0  0  0  0  0  0
  -32.6604   66.9099   43.6119 C   0  0  0  0  0  0  0  0  0  0  0  0
  -33.9879   67.4561   43.0906 C   0  0  0  0  0  0  0  0  0  0  0  0
  -35.0836   67.4257   44.1427 C   0  0  0  0  0  0  0  0  0  0  0  0
  -36.2018   68.1883   43.6782 O   0  0  0  0  0  0  0  0  0  0  0  0
  -34.6285   68.0364   45.4521 C   0  0  0  0  0  0  0  0  0  0  0  0
  -35.9305   69.1095   43.5415 H   0  0  0  0  0  0  0  0  0  0  0  0
  -35.5926   67.5581   46.4445 N   0  0  0  0  0  0  0  0  0  0  0  0
  -36.1530   68.3840   47.3341 C   0  0  0  0  0  0  0  0  0  0  0  0
  -37.1342   67.7709   48.2983 C   0  0  0  0  0  0  0  0  0  0  0  0
  -35.8868   69.5816   47.3788 O   0  0  0  0  0  0  0  0  0  0  0  0
  -35.8345   66.6038   46.4572 H   0  0  0  0  0  0  0  0  0  0  0  0
  -31.5352   67.1456   42.6072 C   0  0  0  0  0  0  0  0  0  0  0  0
  -32.0841   67.3264   41.2821 O   0  0  0  0  0  0  0  0  0  0  0  0
  -32.6756   68.0951   41.2792 H   0  0  0  0  0  0  0  0  0  0  0  0
  -32.7732   68.4704   46.8046 O   0  0  0  0  0  0  0  0  0  0  0  0
  -29.8387   68.3185   47.6573 C   0  0  0  0  0  0  0  0  0  0  0  0
  -30.9275   67.2539   47.7633 C   0  0  0  0  0  0  0  0  0  0  0  0
  -30.6240   66.3872   48.8623 O   0  0  0  0  0  0  0  0  0  0  0  0
  -32.3231   67.8290   47.9823 C   0  0  0  0  0  0  0  0  0  0  0  0
  -32.4036   68.8494   49.0988 C   0  0  0  0  0  0  0  0  0  0  0  0
  -31.0862   69.2101   49.5298 O   0  0  0  0  0  0  0  0  0  0  0  0
  -30.2431   69.5874   48.4250 C   0  0  0  0  0  0  0  0  0  0  0  0
  -29.0520   70.2329   48.9356 O   0  0  0  0  0  0  0  0  0  0  0  0
  -30.6240   66.8984   49.6867 H   0  0  0  0  0  0  0  0  0  0  0  0
  -28.5800   69.6224   49.5232 H   0  0  0  0  0  0  0  0  0  0  0  0
  -27.5555   69.2789   46.5714 O   0  0  0  0  0  0  0  0  0  0  0  0
  -28.4981   69.1285   45.8084 C   0  0  0  0  0  0  0  0  0  0  0  0
  -28.3752   69.4640   44.3449 C   0  0  0  0  0  0  0  0  0  0  0  0
  -29.6742   68.6629   46.2425 N   0  0  0  0  0  0  0  0  0  0  0  0
  -30.4249   68.5521   45.6154 H   0  0  0  0  0  0  0  0  0  0  0  0
  -33.2086   68.2318   50.2338 C   0  0  0  0  0  0  0  0  0  0  0  0
  -33.5046   66.8322   49.9311 O   0  0  0  0  0  0  0  0  0  0  0  0
  -32.6744   66.3412   49.8278 H   0  0  0  0  0  0  0  0  0  0  0  0
  -34.4388   66.5738   42.0878 O   0  0  0  0  0  0  0  0  0  0  0  0
  -34.5830   65.2342   42.5218 C   0  0  0  0  0  0  0  0  0  0  0  0
  -33.4447   64.4700   42.1133 O   0  0  0  0  0  0  0  0  0  0  0  0
  -33.5249   63.0935   42.4850 C   0  0  0  0  0  0  0  0  0  0  0  0
  -34.7580   62.4463   41.8487 C   0  0  0  0  0  0  0  0  0  0  0  0
  -36.0158   63.2593   42.1538 C   0  0  0  0  0  0  0  0  0  0  0  0
  -37.1454   62.7432   41.4331 O   0  0  0  0  0  0  0  0  0  0  0  0
  -35.8250   64.7301   41.8058 C   0  0  0  0  0  0  0  0  0  0  0  0
  -36.9823   62.8179   40.4798 H   0  0  0  0  0  0  0  0  0  0  0  0
  -36.9463   65.4632   42.3935 N   0  0  0  0  0  0  0  0  0  0  0  0
  -37.8524   66.1874   41.7130 C   0  0  0  0  0  0  0  0  0  0  0  0
  -37.7377   66.2714   40.2197 C   0  0  0  0  0  0  0  0  0  0  0  0
  -38.7560   66.7666   42.2917 O   0  0  0  0  0  0  0  0  0  0  0  0
  -37.0464   65.4228   43.3720 H   0  0  0  0  0  0  0  0  0  0  0  0
  -32.2305   62.4285   42.0463 C   0  0  0  0  0  0  0  0  0  0  0  0
  -32.0826   61.1781   42.7407 O   0  0  0  0  0  0  0  0  0  0  0  0
  -32.8341   60.6014   42.5318 H   0  0  0  0  0  0  0  0  0  0  0  0
  -35.0013   61.1669   42.4185 O   0  0  0  0  0  0  0  0  0  0  0  0
  -35.6340   60.1941   41.5848 C   0  0  0  0  0  0  0  0  0  0  0  0
  -34.6219   59.8188   40.4802 C   0  0  0  0  0  0  0  0  0  0  0  0
  -33.7014   58.6517   40.8727 C   0  0  0  0  0  0  0  0  0  0  0  0
  -32.3389   58.9975   40.6091 O   0  0  0  0  0  0  0  0  0  0  0  0
  -33.8621   58.2918   42.3399 C   0  0  0  0  0  0  0  0  0  0  0  0
  -33.0346   57.1662   42.6379 O   0  0  0  0  0  0  0  0  0  0  0  0
  -35.3285   57.9600   42.5860 C   0  0  0  0  0  0  0  0  0  0  0  0
  -36.1763   59.0899   42.3358 O   0  0  0  0  0  0  0  0  0  0  0  0
  -32.0923   59.7694   41.1422 H   0  0  0  0  0  0  0  0  0  0  0  0
  -33.2891   56.4194   42.0737 H   0  0  0  0  0  0  0  0  0  0  0  0
  -35.2838   59.6235   39.1613 N   0  0  0  0  0  0  0  0  0  0  0  0
  -36.6161   60.2601   39.1620 C   0  0  0  0  0  0  0  0  0  0  0  0
  -34.5157   60.1482   38.0154 C   0  0  0  0  0  0  0  0  0  0  0  0
  -35.5013   58.1845   38.9286 C   0  0  0  0  0  0  0  0  0  0  0  0
  -35.5412   57.4950   44.0170 C   0  0  0  0  0  0  0  0  0  0  0  0
  -34.4545   57.9656   44.8348 O   0  0  0  0  0  0  0  0  0  0  0  0
  -33.6178   57.6099   44.4967 H   0  0  0  0  0  0  0  0  0  0  0  0
 65 64  1  0  0  0
 67 64  1  0  0  0
 57 56  1  0  0  0
 64 55  1  0  0  0
 64 66  1  0  0  0
 55 56  1  0  0  0
 55 54  1  0  0  0
 56 58  1  0  0  0
 53 54  1  0  0  0
 53 40  1  0  0  0
 54 61  1  0  0  0
 15 14  1  0  0  0
 51 50  1  0  0  0
 14  3  1  0  0  0
 58 59  1  0  0  0
 58 60  1  0  0  0
 39 50  1  0  0  0
 39 40  1  0  0  0
 39 38  1  0  0  0
 40 41  1  0  0  0
 41 42  1  0  0  0
 41 43  1  0  0  0
 61 60  1  0  0  0
 37 38  1  0  0  0
 37 43  1  0  0  0
 37 36  1  0  0  0
 60 68  1  0  0  0
 45 43  1  0  0  0
 45 46  1  0  0  0
  3  4  1  0  0  0
  3  2  1  0  0  0
  4 36  1  0  0  0
  4  5  1  0  0  0
 34 33  1  0  0  0
  2  1  1  0  0  0
 48 46  2  0  0  0
  6  5  1  0  0  0
 46 47  1  0  0  0
 30 29  1  0  0  0
 17  1  1  0  0  0
 17 21  1  0  0  0
  7  5  1  0  0  0
  7  1  1  0  0  0
  7  9  1  0  0  0
 12 10  2  0  0  0
 68 69  1  0  0  0
 22 33  1  0  0  0
 22 23  1  0  0  0
 22 21  1  0  0  0
 31 29  1  0  0  0
 31 18  1  0  0  0
 24 23  1  0  0  0
 24 25  1  0  0  0
 24 18  1  0  0  0
 21 19  1  0  0  0
 29 28  2  0  0  0
 10  9  1  0  0  0
 10 11  1  0  0  0
 18 19  1  0  0  0
 19 20  1  0  0  0
 31 32  1  0  0  0
 20 26  1  0  0  0
 34 35  1  0  0  0
 25 27  1  0  0  0
 15 16  1  0  0  0
  6  8  1  0  0  0
  9 13  1  0  0  0
 51 52  1  0  0  0
 42 44  1  0  0  0
 45 49  1  0  0  0
 57 62  1  0  0  0
 59 63  1  0  0  0
 69 70  1  0  0  0
M  CHG 1  64   1
M  END
> <minimizedAffinity>
-7.92057

$$$$
3VTR_TCG_A_601


 70 73  0  0  0  0  0  0  0  0999 V2000
  -34.5400   69.1859   44.1683 C   0  0  0  0  0  0  0  0  0  0  0  0
  -33.5186   68.8873   43.2186 O   0  0  0  0  0  0  0  0  0  0  0  0
  -32.9981   67.5612   43.2399 C   0  0  0  0  0  0  0  0  0  0  0  0
  -34.1129   66.5217   43.1444 C   0  0  0  0  0  0  0  0  0  0  0  0
  -35.2147   66.7538   44.1645 C   0  0  0  0  0  0  0  0  0  0  0  0
  -36.3341   65.9222   43.8439 O   0  0  0  0  0  0  0  0  0  0  0  0
  -35.6979   68.1895   44.1594 C   0  0  0  0  0  0  0  0  0  0  0  0
  -36.6716   66.1587   42.9658 H   0  0  0  0  0  0  0  0  0  0  0  0
  -36.4072   68.3512   45.4297 N   0  0  0  0  0  0  0  0  0  0  0  0
  -37.7390   68.2611   45.5068 C   0  0  0  0  0  0  0  0  0  0  0  0
  -38.3488   68.4402   46.8722 C   0  0  0  0  0  0  0  0  0  0  0  0
  -38.4422   68.0498   44.5229 O   0  0  0  0  0  0  0  0  0  0  0  0
  -35.8905   68.5309   46.2482 H   0  0  0  0  0  0  0  0  0  0  0  0
  -32.0189   67.4274   42.0761 C   0  0  0  0  0  0  0  0  0  0  0  0
  -30.9263   66.5560   42.4458 O   0  0  0  0  0  0  0  0  0  0  0  0
  -31.2739   65.6781   42.6680 H   0  0  0  0  0  0  0  0  0  0  0  0
  -35.0898   70.3989   43.7028 O   0  0  0  0  0  0  0  0  0  0  0  0
  -35.6646   73.3852   43.3674 C   0  0  0  0  0  0  0  0  0  0  0  0
  -34.5630   72.5405   42.7326 C   0  0  0  0  0  0  0  0  0  0  0  0
  -33.4388   73.3811   42.4486 O   0  0  0  0  0  0  0  0  0  0  0  0
  -34.0875   71.3935   43.6184 C   0  0  0  0  0  0  0  0  0  0  0  0
  -33.7535   71.8049   45.0373 C   0  0  0  0  0  0  0  0  0  0  0  0
  -34.1967   73.1457   45.2766 O   0  0  0  0  0  0  0  0  0  0  0  0
  -35.5743   73.3322   44.9010 C   0  0  0  0  0  0  0  0  0  0  0  0
  -36.0501   74.5854   45.4479 O   0  0  0  0  0  0  0  0  0  0  0  0
  -33.0935   73.7499   43.2766 H   0  0  0  0  0  0  0  0  0  0  0  0
  -35.5086   75.3138   45.1058 H   0  0  0  0  0  0  0  0  0  0  0  0
  -37.8794   74.8606   42.8853 O   0  0  0  0  0  0  0  0  0  0  0  0
  -37.9903   73.6522   42.7418 C   0  0  0  0  0  0  0  0  0  0  0  0
  -39.2979   73.0363   42.3171 C   0  0  0  0  0  0  0  0  0  0  0  0
  -36.9575   72.8305   42.9576 N   0  0  0  0  0  0  0  0  0  0  0  0
  -37.0652   71.8588   42.8420 H   0  0  0  0  0  0  0  0  0  0  0  0
  -32.2466   71.6793   45.2137 C   0  0  0  0  0  0  0  0  0  0  0  0
  -31.6373   71.2031   43.9727 O   0  0  0  0  0  0  0  0  0  0  0  0
  -31.8212   71.8342   43.2593 H   0  0  0  0  0  0  0  0  0  0  0  0
  -33.5569   65.2773   43.5043 O   0  0  0  0  0  0  0  0  0  0  0  0
  -33.7574   64.2576   42.5432 C   0  0  0  0  0  0  0  0  0  0  0  0
  -35.1285   63.8491   42.5527 O   0  0  0  0  0  0  0  0  0  0  0  0
  -35.4111   62.7962   41.6304 C   0  0  0  0  0  0  0  0  0  0  0  0
  -34.5678   61.5624   41.9637 C   0  0  0  0  0  0  0  0  0  0  0  0
  -33.0881   61.9298   42.0720 C   0  0  0  0  0  0  0  0  0  0  0  0
  -32.3163   60.8109   42.5347 O   0  0  0  0  0  0  0  0  0  0  0  0
  -32.8758   63.1112   43.0101 C   0  0  0  0  0  0  0  0  0  0  0  0
  -32.6128   60.5589   43.4232 H   0  0  0  0  0  0  0  0  0  0  0  0
  -31.4989   63.5691   42.8250 N   0  0  0  0  0  0  0  0  0  0  0  0
  -30.5610   63.6425   43.7861 C   0  0  0  0  0  0  0  0  0  0  0  0
  -30.9202   63.2236   45.1809 C   0  0  0  0  0  0  0  0  0  0  0  0
  -29.4354   64.0390   43.5360 O   0  0  0  0  0  0  0  0  0  0  0  0
  -31.2359   63.8478   41.9181 H   0  0  0  0  0  0  0  0  0  0  0  0
  -36.9029   62.5153   41.7051 C   0  0  0  0  0  0  0  0  0  0  0  0
  -37.5958   63.7283   42.0458 O   0  0  0  0  0  0  0  0  0  0  0  0
  -37.4229   64.4006   41.3682 H   0  0  0  0  0  0  0  0  0  0  0  0
  -34.6334   60.6121   40.9086 O   0  0  0  0  0  0  0  0  0  0  0  0
  -35.6565   59.6182   40.9923 C   0  0  0  0  0  0  0  0  0  0  0  0
  -35.4307   58.6373   39.8209 C   0  0  0  0  0  0  0  0  0  0  0  0
  -34.4915   57.4736   40.1772 C   0  0  0  0  0  0  0  0  0  0  0  0
  -33.4841   57.3366   39.1712 O   0  0  0  0  0  0  0  0  0  0  0  0
  -33.8355   57.6886   41.5305 C   0  0  0  0  0  0  0  0  0  0  0  0
  -33.0242   56.5548   41.8416 O   0  0  0  0  0  0  0  0  0  0  0  0
  -34.9387   57.8598   42.5672 C   0  0  0  0  0  0  0  0  0  0  0  0
  -35.7407   59.0190   42.3005 O   0  0  0  0  0  0  0  0  0  0  0  0
  -32.9561   58.1492   39.1296 H   0  0  0  0  0  0  0  0  0  0  0  0
  -33.5749   55.7564   41.8525 H   0  0  0  0  0  0  0  0  0  0  0  0
  -36.7140   58.1886   39.2148 N   0  0  0  0  0  0  0  0  0  0  0  0
  -37.2691   59.2523   38.3542 C   0  0  0  0  0  0  0  0  0  0  0  0
  -36.6066   56.9510   38.4178 C   0  0  0  0  0  0  0  0  0  0  0  0
  -37.7028   57.9461   40.2805 C   0  0  0  0  0  0  0  0  0  0  0  0
  -34.3502   57.9814   43.9629 C   0  0  0  0  0  0  0  0  0  0  0  0
  -33.0664   58.6265   43.8814 O   0  0  0  0  0  0  0  0  0  0  0  0
  -32.4746   58.0994   43.3221 H   0  0  0  0  0  0  0  0  0  0  0  0
 65 64  1  0  0  0
 67 64  1  0  0  0
 57 56  1  0  0  0
 64 55  1  0  0  0
 64 66  1  0  0  0
 55 56  1  0  0  0
 55 54  1  0  0  0
 56 58  1  0  0  0
 53 54  1  0  0  0
 53 40  1  0  0  0
 54 61  1  0  0  0
 15 14  1  0  0  0
 51 50  1  0  0  0
 14  3  1  0  0  0
 58 59  1  0  0  0
 58 60  1  0  0  0
 39 50  1  0  0  0
 39 40  1  0  0  0
 39 38  1  0  0  0
 40 41  1  0  0  0
 41 42  1  0  0  0
 41 43  1  0  0  0
 61 60  1  0  0  0
 37 38  1  0  0  0
 37 43  1  0  0  0
 37 36  1  0  0  0
 60 68  1  0  0  0
 45 43  1  0  0  0
 45 46  1  0  0  0
  3  4  1  0  0  0
  3  2  1  0  0  0
  4 36  1  0  0  0
  4  5  1  0  0  0
 34 33  1  0  0  0
  2  1  1  0  0  0
 48 46  2  0  0  0
  6  5  1  0  0  0
 46 47  1  0  0  0
 30 29  1  0  0  0
 17  1  1  0  0  0
 17 21  1  0  0  0
  7  5  1  0  0  0
  7  1  1  0  0  0
  7  9  1  0  0  0
 12 10  2  0  0  0
 68 69  1  0  0  0
 22 33  1  0  0  0
 22 23  1  0  0  0
 22 21  1  0  0  0
 31 29  1  0  0  0
 31 18  1  0  0  0
 24 23  1  0  0  0
 24 25  1  0  0  0
 24 18  1  0  0  0
 21 19  1  0  0  0
 29 28  2  0  0  0
 10  9  1  0  0  0
 10 11  1  0  0  0
 18 19  1  0  0  0
 19 20  1  0  0  0
 31 32  1  0  0  0
 20 26  1  0  0  0
 34 35  1  0  0  0
 25 27  1  0  0  0
 15 16  1  0  0  0
  6  8  1  0  0  0
  9 13  1  0  0  0
 51 52  1  0  0  0
 42 44  1  0  0  0
 45 49  1  0  0  0
 57 62  1  0  0  0
 59 63  1  0  0  0
 69 70  1  0  0  0
M  CHG 1  64   1
M  END
> <minimizedAffinity>
-7.86677

$$$$
3VTR_TCG_A_601


 70 73  0  0  0  0  0  0  0  0999 V2000
  -33.5952   68.9671   45.2653 C   0  0  0  0  0  0  0  0  0  0  0  0
  -34.8211   68.3229   45.6065 O   0  0  0  0  0  0  0  0  0  0  0  0
  -35.5232   67.6868   44.5424 C   0  0  0  0  0  0  0  0  0  0  0  0
  -34.6234   66.7157   43.7811 C   0  0  0  0  0  0  0  0  0  0  0  0
  -33.3155   67.3539   43.3444 C   0  0  0  0  0  0  0  0  0  0  0  0
  -32.4249   66.3324   42.8851 O   0  0  0  0  0  0  0  0  0  0  0  0
  -32.6295   68.0768   44.4852 C   0  0  0  0  0  0  0  0  0  0  0  0
  -32.2402   65.7147   43.6099 H   0  0  0  0  0  0  0  0  0  0  0  0
  -31.6613   68.9644   43.8389 N   0  0  0  0  0  0  0  0  0  0  0  0
  -30.3561   68.6759   43.8072 C   0  0  0  0  0  0  0  0  0  0  0  0
  -29.4637   69.6664   43.1066 C   0  0  0  0  0  0  0  0  0  0  0  0
  -29.8935   67.6628   44.3236 O   0  0  0  0  0  0  0  0  0  0  0  0
  -31.9793   69.7950   43.4167 H   0  0  0  0  0  0  0  0  0  0  0  0
  -36.7265   66.9657   45.1450 C   0  0  0  0  0  0  0  0  0  0  0  0
  -37.7674   66.8239   44.1518 O   0  0  0  0  0  0  0  0  0  0  0  0
  -37.4318   66.3062   43.4033 H   0  0  0  0  0  0  0  0  0  0  0  0
  -32.9721   69.1889   46.5114 O   0  0  0  0  0  0  0  0  0  0  0  0
  -30.5484   68.1350   48.0529 C   0  0  0  0  0  0  0  0  0  0  0  0
  -31.5974   67.3579   47.2616 C   0  0  0  0  0  0  0  0  0  0  0  0
  -31.7114   66.0403   47.8112 O   0  0  0  0  0  0  0  0  0  0  0  0
  -32.9790   68.0036   47.2833 C   0  0  0  0  0  0  0  0  0  0  0  0
  -33.4638   68.3813   48.6677 C   0  0  0  0  0  0  0  0  0  0  0  0
  -32.3948   68.2573   49.6127 O   0  0  0  0  0  0  0  0  0  0  0  0
  -31.2089   68.9486   49.1775 C   0  0  0  0  0  0  0  0  0  0  0  0
  -30.2875   69.0567   50.2890 O   0  0  0  0  0  0  0  0  0  0  0  0
  -32.0132   66.0987   48.7312 H   0  0  0  0  0  0  0  0  0  0  0  0
  -30.0594   68.1693   50.6074 H   0  0  0  0  0  0  0  0  0  0  0  0
  -28.1586   69.3072   48.5320 O   0  0  0  0  0  0  0  0  0  0  0  0
  -28.6967   69.5854   47.4707 C   0  0  0  0  0  0  0  0  0  0  0  0
  -28.0475   70.5311   46.4942 C   0  0  0  0  0  0  0  0  0  0  0  0
  -29.8817   69.0636   47.1362 N   0  0  0  0  0  0  0  0  0  0  0  0
  -30.3036   69.3020   46.2793 H   0  0  0  0  0  0  0  0  0  0  0  0
  -34.6244   67.4609   49.0193 C   0  0  0  0  0  0  0  0  0  0  0  0
  -35.8618   67.9716   48.4311 O   0  0  0  0  0  0  0  0  0  0  0  0
  -35.7692   68.0102   47.4663 H   0  0  0  0  0  0  0  0  0  0  0  0
  -35.2787   66.3960   42.5745 O   0  0  0  0  0  0  0  0  0  0  0  0
  -35.6083   65.0256   42.4441 C   0  0  0  0  0  0  0  0  0  0  0  0
  -34.4135   64.2389   42.4584 O   0  0  0  0  0  0  0  0  0  0  0  0
  -34.6553   62.8406   42.2988 C   0  0  0  0  0  0  0  0  0  0  0  0
  -35.3570   62.5756   40.9640 C   0  0  0  0  0  0  0  0  0  0  0  0
  -36.5996   63.4539   40.8206 C   0  0  0  0  0  0  0  0  0  0  0  0
  -37.1710   63.3210   39.5100 O   0  0  0  0  0  0  0  0  0  0  0  0
  -36.2779   64.9195   41.0840 C   0  0  0  0  0  0  0  0  0  0  0  0
  -36.5311   63.6225   38.8462 H   0  0  0  0  0  0  0  0  0  0  0  0
  -37.5522   65.6261   41.2133 N   0  0  0  0  0  0  0  0  0  0  0  0
  -38.0365   66.5343   40.3476 C   0  0  0  0  0  0  0  0  0  0  0  0
  -37.2295   66.8756   39.1301 C   0  0  0  0  0  0  0  0  0  0  0  0
  -39.1130   67.0735   40.5402 O   0  0  0  0  0  0  0  0  0  0  0  0
  -38.1031   65.4189   42.0025 H   0  0  0  0  0  0  0  0  0  0  0  0
  -33.3135   62.1334   42.3980 C   0  0  0  0  0  0  0  0  0  0  0  0
  -32.2979   62.9616   41.8062 O   0  0  0  0  0  0  0  0  0  0  0  0
  -32.2569   63.8089   42.2767 H   0  0  0  0  0  0  0  0  0  0  0  0
  -35.8434   61.2409   40.9112 O   0  0  0  0  0  0  0  0  0  0  0  0
  -34.9756   60.2551   40.3482 C   0  0  0  0  0  0  0  0  0  0  0  0
  -35.3785   58.8957   40.9605 C   0  0  0  0  0  0  0  0  0  0  0  0
  -36.4676   58.1675   40.1561 C   0  0  0  0  0  0  0  0  0  0  0  0
  -37.5140   57.7390   41.0319 O   0  0  0  0  0  0  0  0  0  0  0  0
  -37.0437   59.0622   39.0719 C   0  0  0  0  0  0  0  0  0  0  0  0
  -38.0032   58.3216   38.3162 O   0  0  0  0  0  0  0  0  0  0  0  0
  -35.8966   59.5208   38.1803 C   0  0  0  0  0  0  0  0  0  0  0  0
  -34.9411   60.3053   38.9081 O   0  0  0  0  0  0  0  0  0  0  0  0
  -37.9177   58.5124   41.4559 H   0  0  0  0  0  0  0  0  0  0  0  0
  -37.5760   57.5436   37.9250 H   0  0  0  0  0  0  0  0  0  0  0  0
  -34.1940   58.0413   41.2480 N   0  0  0  0  0  0  0  0  0  0  0  0
  -32.9505   58.7773   40.9441 C   0  0  0  0  0  0  0  0  0  0  0  0
  -34.1217   57.5559   42.6399 C   0  0  0  0  0  0  0  0  0  0  0  0
  -34.2140   56.8604   40.3663 C   0  0  0  0  0  0  0  0  0  0  0  0
  -36.4185   60.3426   37.0135 C   0  0  0  0  0  0  0  0  0  0  0  0
  -37.4225   61.2571   37.4895 O   0  0  0  0  0  0  0  0  0  0  0  0
  -38.1516   60.7575   37.8892 H   0  0  0  0  0  0  0  0  0  0  0  0
 65 64  1  0  0  0
 67 64  1  0  0  0
 57 56  1  0  0  0
 64 55  1  0  0  0
 64 66  1  0  0  0
 55 56  1  0  0  0
 55 54  1  0  0  0
 56 58  1  0  0  0
 53 54  1  0  0  0
 53 40  1  0  0  0
 54 61  1  0  0  0
 15 14  1  0  0  0
 51 50  1  0  0  0
 14  3  1  0  0  0
 58 59  1  0  0  0
 58 60  1  0  0  0
 39 50  1  0  0  0
 39 40  1  0  0  0
 39 38  1  0  0  0
 40 41  1  0  0  0
 41 42  1  0  0  0
 41 43  1  0  0  0
 61 60  1  0  0  0
 37 38  1  0  0  0
 37 43  1  0  0  0
 37 36  1  0  0  0
 60 68  1  0  0  0
 45 43  1  0  0  0
 45 46  1  0  0  0
  3  4  1  0  0  0
  3  2  1  0  0  0
  4 36  1  0  0  0
  4  5  1  0  0  0
 34 33  1  0  0  0
  2  1  1  0  0  0
 48 46  2  0  0  0
  6  5  1  0  0  0
 46 47  1  0  0  0
 30 29  1  0  0  0
 17  1  1  0  0  0
 17 21  1  0  0  0
  7  5  1  0  0  0
  7  1  1  0  0  0
  7  9  1  0  0  0
 12 10  2  0  0  0
 68 69  1  0  0  0
 22 33  1  0  0  0
 22 23  1  0  0  0
 22 21  1  0  0  0
 31 29  1  0  0  0
 31 18  1  0  0  0
 24 23  1  0  0  0
 24 25  1  0  0  0
 24 18  1  0  0  0
 21 19  1  0  0  0
 29 28  2  0  0  0
 10  9  1  0  0  0
 10 11  1  0  0  0
 18 19  1  0  0  0
 19 20  1  0  0  0
 31 32  1  0  0  0
 20 26  1  0  0  0
 34 35  1  0  0  0
 25 27  1  0  0  0
 15 16  1  0  0  0
  6  8  1  0  0  0
  9 13  1  0  0  0
 51 52  1  0  0  0
 42 44  1  0  0  0
 45 49  1  0  0  0
 57 62  1  0  0  0
 59 63  1  0  0  0
 69 70  1  0  0  0
M  CHG 1  64   1
M  END
> <minimizedAffinity>
-7.76681

$$$$
3VTR_TCG_A_601


 70 73  0  0  0  0  0  0  0  0999 V2000
  -34.3826   68.9666   44.3075 C   0  0  0  0  0  0  0  0  0  0  0  0
  -33.3207   68.6495   43.4097 O   0  0  0  0  0  0  0  0  0  0  0  0
  -32.8842   67.2934   43.3945 C   0  0  0  0  0  0  0  0  0  0  0  0
  -34.0511   66.3330   43.1747 C   0  0  0  0  0  0  0  0  0  0  0  0
  -35.2019   66.5856   44.1341 C   0  0  0  0  0  0  0  0  0  0  0  0
  -36.3460   65.8436   43.7006 O   0  0  0  0  0  0  0  0  0  0  0  0
  -35.5958   68.0478   44.1736 C   0  0  0  0  0  0  0  0  0  0  0  0
  -36.6098   66.1432   42.8166 H   0  0  0  0  0  0  0  0  0  0  0  0
  -36.3764   68.1931   45.4035 N   0  0  0  0  0  0  0  0  0  0  0  0
  -37.7114   68.2655   45.3834 C   0  0  0  0  0  0  0  0  0  0  0  0
  -38.3988   68.4077   46.7159 C   0  0  0  0  0  0  0  0  0  0  0  0
  -38.3569   68.2257   44.3399 O   0  0  0  0  0  0  0  0  0  0  0  0
  -35.9065   68.2386   46.2674 H   0  0  0  0  0  0  0  0  0  0  0  0
  -31.8401   67.1535   42.2893 C   0  0  0  0  0  0  0  0  0  0  0  0
  -30.7727   66.2807   42.7238 O   0  0  0  0  0  0  0  0  0  0  0  0
  -31.1347   65.4044   42.9284 H   0  0  0  0  0  0  0  0  0  0  0  0
  -34.8259   70.2332   43.8723 O   0  0  0  0  0  0  0  0  0  0  0  0
  -32.6337   72.0035   45.0646 C   0  0  0  0  0  0  0  0  0  0  0  0
  -33.7254   71.2113   45.7795 C   0  0  0  0  0  0  0  0  0  0  0  0
  -34.0275   71.8549   47.0227 O   0  0  0  0  0  0  0  0  0  0  0  0
  -35.0177   71.0944   44.9779 C   0  0  0  0  0  0  0  0  0  0  0  0
  -35.5265   72.4111   44.4287 C   0  0  0  0  0  0  0  0  0  0  0  0
  -34.5324   73.4288   44.5946 O   0  0  0  0  0  0  0  0  0  0  0  0
  -33.2499   73.0163   44.0860 C   0  0  0  0  0  0  0  0  0  0  0  0
  -32.3829   74.1718   43.9907 O   0  0  0  0  0  0  0  0  0  0  0  0
  -34.3687   72.7465   46.8507 H   0  0  0  0  0  0  0  0  0  0  0  0
  -32.2815   74.5732   44.8679 H   0  0  0  0  0  0  0  0  0  0  0  0
  -30.1372   71.2355   45.7662 O   0  0  0  0  0  0  0  0  0  0  0  0
  -30.5878   70.7461   44.7411 C   0  0  0  0  0  0  0  0  0  0  0  0
  -29.7817   69.7682   43.9265 C   0  0  0  0  0  0  0  0  0  0  0  0
  -31.8113   71.0604   44.3022 N   0  0  0  0  0  0  0  0  0  0  0  0
  -32.1574   70.6606   43.4717 H   0  0  0  0  0  0  0  0  0  0  0  0
  -36.8072   72.7602   45.1741 C   0  0  0  0  0  0  0  0  0  0  0  0
  -36.9442   71.9096   46.3555 O   0  0  0  0  0  0  0  0  0  0  0  0
  -36.1865   72.0500   46.9446 H   0  0  0  0  0  0  0  0  0  0  0  0
  -33.5966   65.0397   43.5035 O   0  0  0  0  0  0  0  0  0  0  0  0
  -33.8397   64.0717   42.4997 C   0  0  0  0  0  0  0  0  0  0  0  0
  -35.2139   63.6755   42.5349 O   0  0  0  0  0  0  0  0  0  0  0  0
  -35.5381   62.6730   41.5709 C   0  0  0  0  0  0  0  0  0  0  0  0
  -34.6973   61.4165   41.8133 C   0  0  0  0  0  0  0  0  0  0  0  0
  -33.2111   61.7648   41.8900 C   0  0  0  0  0  0  0  0  0  0  0  0
  -32.4361   60.6171   42.2698 O   0  0  0  0  0  0  0  0  0  0  0  0
  -32.9553   62.8953   42.8785 C   0  0  0  0  0  0  0  0  0  0  0  0
  -32.7057   60.3232   43.1540 H   0  0  0  0  0  0  0  0  0  0  0  0
  -31.5805   63.3498   42.6704 N   0  0  0  0  0  0  0  0  0  0  0  0
  -30.6166   63.3869   43.6075 C   0  0  0  0  0  0  0  0  0  0  0  0
  -30.9410   62.9270   44.9979 C   0  0  0  0  0  0  0  0  0  0  0  0
  -29.4952   63.7837   43.3393 O   0  0  0  0  0  0  0  0  0  0  0  0
  -31.3400   63.6550   41.7658 H   0  0  0  0  0  0  0  0  0  0  0  0
  -37.0296   62.4019   41.6815 C   0  0  0  0  0  0  0  0  0  0  0  0
  -37.7275   63.6508   41.8255 O   0  0  0  0  0  0  0  0  0  0  0  0
  -37.5529   64.2098   41.0523 H   0  0  0  0  0  0  0  0  0  0  0  0
  -34.8079   60.5213   40.7146 O   0  0  0  0  0  0  0  0  0  0  0  0
  -35.7897   59.4880   40.8150 C   0  0  0  0  0  0  0  0  0  0  0  0
  -35.4970   58.4753   39.6862 C   0  0  0  0  0  0  0  0  0  0  0  0
  -34.5174   57.3670   40.1053 C   0  0  0  0  0  0  0  0  0  0  0  0
  -33.4834   57.2365   39.1259 O   0  0  0  0  0  0  0  0  0  0  0  0
  -33.9010   57.6598   41.4626 C   0  0  0  0  0  0  0  0  0  0  0  0
  -33.0496   56.5743   41.8328 O   0  0  0  0  0  0  0  0  0  0  0  0
  -35.0330   57.8214   42.4694 C   0  0  0  0  0  0  0  0  0  0  0  0
  -35.8772   58.9344   42.1429 O   0  0  0  0  0  0  0  0  0  0  0  0
  -32.9893   58.0690   39.0644 H   0  0  0  0  0  0  0  0  0  0  0  0
  -33.5661   55.7538   41.8626 H   0  0  0  0  0  0  0  0  0  0  0  0
  -36.7466   57.9497   39.0715 N   0  0  0  0  0  0  0  0  0  0  0  0
  -37.1446   58.7942   37.9275 C   0  0  0  0  0  0  0  0  0  0  0  0
  -36.6516   56.5512   38.6094 C   0  0  0  0  0  0  0  0  0  0  0  0
  -37.8443   58.0197   40.0525 C   0  0  0  0  0  0  0  0  0  0  0  0
  -34.4809   58.0196   43.8712 C   0  0  0  0  0  0  0  0  0  0  0  0
  -33.1244   58.4924   43.7839 O   0  0  0  0  0  0  0  0  0  0  0  0
  -32.5848   57.8407   43.3094 H   0  0  0  0  0  0  0  0  0  0  0  0
 65 64  1  0  0  0
 67 64  1  0  0  0
 57 56  1  0  0  0
 64 55  1  0  0  0
 64 66  1  0  0  0
 55 56  1  0  0  0
 55 54  1  0  0  0
 56 58  1  0  0  0
 53 54  1  0  0  0
 53 40  1  0  0  0
 54 61  1  0  0  0
 15 14  1  0  0  0
 51 50  1  0  0  0
 14  3  1  0  0  0
 58 59  1  0  0  0
 58 60  1  0  0  0
 39 50  1  0  0  0
 39 40  1  0  0  0
 39 38  1  0  0  0
 40 41  1  0  0  0
 41 42  1  0  0  0
 41 43  1  0  0  0
 61 60  1  0  0  0
 37 38  1  0  0  0
 37 43  1  0  0  0
 37 36  1  0  0  0
 60 68  1  0  0  0
 45 43  1  0  0  0
 45 46  1  0  0  0
  3  4  1  0  0  0
  3  2  1  0  0  0
  4 36  1  0  0  0
  4  5  1  0  0  0
 34 33  1  0  0  0
  2  1  1  0  0  0
 48 46  2  0  0  0
  6  5  1  0  0  0
 46 47  1  0  0  0
 30 29  1  0  0  0
 17  1  1  0  0  0
 17 21  1  0  0  0
  7  5  1  0  0  0
  7  1  1  0  0  0
  7  9  1  0  0  0
 12 10  2  0  0  0
 68 69  1  0  0  0
 22 33  1  0  0  0
 22 23  1  0  0  0
 22 21  1  0  0  0
 31 29  1  0  0  0
 31 18  1  0  0  0
 24 23  1  0  0  0
 24 25  1  0  0  0
 24 18  1  0  0  0
 21 19  1  0  0  0
 29 28  2  0  0  0
 10  9  1  0  0  0
 10 11  1  0  0  0
 18 19  1  0  0  0
 19 20  1  0  0  0
 31 32  1  0  0  0
 20 26  1  0  0  0
 34 35  1  0  0  0
 25 27  1  0  0  0
 15 16  1  0  0  0
  6  8  1  0  0  0
  9 13  1  0  0  0
 51 52  1  0  0  0
 42 44  1  0  0  0
 45 49  1  0  0  0
 57 62  1  0  0  0
 59 63  1  0  0  0
 69 70  1  0  0  0
M  CHG 1  64   1
M  END
> <minimizedAffinity>
-7.67218

$$$$
3VTR_TCG_A_601


 70 73  0  0  0  0  0  0  0  0999 V2000
  -34.4360   69.1844   44.1809 C   0  0  0  0  0  0  0  0  0  0  0  0
  -33.4177   68.8788   43.2301 O   0  0  0  0  0  0  0  0  0  0  0  0
  -32.9056   67.5495   43.2517 C   0  0  0  0  0  0  0  0  0  0  0  0
  -34.0270   66.5170   43.1581 C   0  0  0  0  0  0  0  0  0  0  0  0
  -35.1261   66.7567   44.1794 C   0  0  0  0  0  0  0  0  0  0  0  0
  -36.2512   65.9320   43.8606 O   0  0  0  0  0  0  0  0  0  0  0  0
  -35.6002   68.1954   44.1740 C   0  0  0  0  0  0  0  0  0  0  0  0
  -36.5882   66.1700   42.9828 H   0  0  0  0  0  0  0  0  0  0  0  0
  -36.3070   68.3624   45.4450 N   0  0  0  0  0  0  0  0  0  0  0  0
  -37.6409   68.3083   45.5192 C   0  0  0  0  0  0  0  0  0  0  0  0
  -38.2479   68.4889   46.8856 C   0  0  0  0  0  0  0  0  0  0  0  0
  -38.3480   68.1276   44.5320 O   0  0  0  0  0  0  0  0  0  0  0  0
  -35.7869   68.5185   46.2662 H   0  0  0  0  0  0  0  0  0  0  0  0
  -31.9286   67.4087   42.0869 C   0  0  0  0  0  0  0  0  0  0  0  0
  -30.8796   66.4751   42.4302 O   0  0  0  0  0  0  0  0  0  0  0  0
  -31.2689   65.6075   42.6219 H   0  0  0  0  0  0  0  0  0  0  0  0
  -34.9786   70.4006   43.7152 O   0  0  0  0  0  0  0  0  0  0  0  0
  -37.0358   72.4061   42.6631 C   0  0  0  0  0  0  0  0  0  0  0  0
  -37.1380   70.8863   42.7631 C   0  0  0  0  0  0  0  0  0  0  0  0
  -38.0333   70.4136   41.7502 O   0  0  0  0  0  0  0  0  0  0  0  0
  -35.8015   70.1727   42.5874 C   0  0  0  0  0  0  0  0  0  0  0  0
  -35.0168   70.6192   41.3712 C   0  0  0  0  0  0  0  0  0  0  0  0
  -35.6170   71.7885   40.8022 O   0  0  0  0  0  0  0  0  0  0  0  0
  -35.8390   72.8138   41.7888 C   0  0  0  0  0  0  0  0  0  0  0  0
  -36.1440   74.0600   41.1181 O   0  0  0  0  0  0  0  0  0  0  0  0
  -37.6763   70.6326   40.8753 H   0  0  0  0  0  0  0  0  0  0  0  0
  -36.9359   73.9466   40.5696 H   0  0  0  0  0  0  0  0  0  0  0  0
  -38.0446   74.7524   43.5531 O   0  0  0  0  0  0  0  0  0  0  0  0
  -37.3774   74.1108   44.3509 C   0  0  0  0  0  0  0  0  0  0  0  0
  -37.1420   74.6153   45.7508 C   0  0  0  0  0  0  0  0  0  0  0  0
  -36.8295   72.9388   44.0125 N   0  0  0  0  0  0  0  0  0  0  0  0
  -36.2908   72.4369   44.6660 H   0  0  0  0  0  0  0  0  0  0  0  0
  -35.0030   69.4645   40.3792 C   0  0  0  0  0  0  0  0  0  0  0  0
  -35.9875   68.4574   40.7724 O   0  0  0  0  0  0  0  0  0  0  0  0
  -36.8717   68.8562   40.7821 H   0  0  0  0  0  0  0  0  0  0  0  0
  -33.4784   65.2693   43.5182 O   0  0  0  0  0  0  0  0  0  0  0  0
  -33.6879   64.2499   42.5587 C   0  0  0  0  0  0  0  0  0  0  0  0
  -35.0604   63.8468   42.5754 O   0  0  0  0  0  0  0  0  0  0  0  0
  -35.3518   62.7946   41.6550 C   0  0  0  0  0  0  0  0  0  0  0  0
  -34.5118   61.5577   41.9847 C   0  0  0  0  0  0  0  0  0  0  0  0
  -33.0301   61.9192   42.0853 C   0  0  0  0  0  0  0  0  0  0  0  0
  -32.2603   60.7976   42.5446 O   0  0  0  0  0  0  0  0  0  0  0  0
  -32.8084   63.1002   43.0216 C   0  0  0  0  0  0  0  0  0  0  0  0
  -32.5533   60.5471   43.4348 H   0  0  0  0  0  0  0  0  0  0  0  0
  -31.4306   63.5527   42.8293 N   0  0  0  0  0  0  0  0  0  0  0  0
  -30.4924   63.6388   43.7890 C   0  0  0  0  0  0  0  0  0  0  0  0
  -30.8520   63.2417   45.1901 C   0  0  0  0  0  0  0  0  0  0  0  0
  -29.3661   64.0293   43.5327 O   0  0  0  0  0  0  0  0  0  0  0  0
  -31.1674   63.8171   41.9183 H   0  0  0  0  0  0  0  0  0  0  0  0
  -36.8444   62.5195   41.7374 C   0  0  0  0  0  0  0  0  0  0  0  0
  -37.5287   63.7304   42.1022 O   0  0  0  0  0  0  0  0  0  0  0  0
  -37.3580   64.4122   41.4337 H   0  0  0  0  0  0  0  0  0  0  0  0
  -34.5864   60.6070   40.9304 O   0  0  0  0  0  0  0  0  0  0  0  0
  -35.6180   59.6220   41.0158 C   0  0  0  0  0  0  0  0  0  0  0  0
  -35.4137   58.6499   39.8332 C   0  0  0  0  0  0  0  0  0  0  0  0
  -34.4819   57.4742   40.1690 C   0  0  0  0  0  0  0  0  0  0  0  0
  -33.4864   57.3370   39.1513 O   0  0  0  0  0  0  0  0  0  0  0  0
  -33.8099   57.6706   41.5173 C   0  0  0  0  0  0  0  0  0  0  0  0
  -33.0062   56.5265   41.8096 O   0  0  0  0  0  0  0  0  0  0  0  0
  -34.9006   57.8426   42.5670 C   0  0  0  0  0  0  0  0  0  0  0  0
  -35.6943   59.0117   42.3193 O   0  0  0  0  0  0  0  0  0  0  0  0
  -32.9511   58.1449   39.1116 H   0  0  0  0  0  0  0  0  0  0  0  0
  -33.5643   55.7332   41.8190 H   0  0  0  0  0  0  0  0  0  0  0  0
  -36.7075   58.2188   39.2366 N   0  0  0  0  0  0  0  0  0  0  0  0
  -37.2810   59.3100   38.4236 C   0  0  0  0  0  0  0  0  0  0  0  0
  -36.6128   57.0096   38.3956 C   0  0  0  0  0  0  0  0  0  0  0  0
  -37.6753   57.9373   40.3119 C   0  0  0  0  0  0  0  0  0  0  0  0
  -34.2965   57.9458   43.9575 C   0  0  0  0  0  0  0  0  0  0  0  0
  -33.0249   58.6144   43.8734 O   0  0  0  0  0  0  0  0  0  0  0  0
  -32.4314   58.1090   43.2960 H   0  0  0  0  0  0  0  0  0  0  0  0
 65 64  1  0  0  0
 67 64  1  0  0  0
 57 56  1  0  0  0
 64 55  1  0  0  0
 64 66  1  0  0  0
 55 56  1  0  0  0
 55 54  1  0  0  0
 56 58  1  0  0  0
 53 54  1  0  0  0
 53 40  1  0  0  0
 54 61  1  0  0  0
 15 14  1  0  0  0
 51 50  1  0  0  0
 14  3  1  0  0  0
 58 59  1  0  0  0
 58 60  1  0  0  0
 39 50  1  0  0  0
 39 40  1  0  0  0
 39 38  1  0  0  0
 40 41  1  0  0  0
 41 42  1  0  0  0
 41 43  1  0  0  0
 61 60  1  0  0  0
 37 38  1  0  0  0
 37 43  1  0  0  0
 37 36  1  0  0  0
 60 68  1  0  0  0
 45 43  1  0  0  0
 45 46  1  0  0  0
  3  4  1  0  0  0
  3  2  1  0  0  0
  4 36  1  0  0  0
  4  5  1  0  0  0
 34 33  1  0  0  0
  2  1  1  0  0  0
 48 46  2  0  0  0
  6  5  1  0  0  0
 46 47  1  0  0  0
 30 29  1  0  0  0
 17  1  1  0  0  0
 17 21  1  0  0  0
  7  5  1  0  0  0
  7  1  1  0  0  0
  7  9  1  0  0  0
 12 10  2  0  0  0
 68 69  1  0  0  0
 22 33  1  0  0  0
 22 23  1  0  0  0
 22 21  1  0  0  0
 31 29  1  0  0  0
 31 18  1  0  0  0
 24 23  1  0  0  0
 24 25  1  0  0  0
 24 18  1  0  0  0
 21 19  1  0  0  0
 29 28  2  0  0  0
 10  9  1  0  0  0
 10 11  1  0  0  0
 18 19  1  0  0  0
 19 20  1  0  0  0
 31 32  1  0  0  0
 20 26  1  0  0  0
 34 35  1  0  0  0
 25 27  1  0  0  0
 15 16  1  0  0  0
  6  8  1  0  0  0
  9 13  1  0  0  0
 51 52  1  0  0  0
 42 44  1  0  0  0
 45 49  1  0  0  0
 57 62  1  0  0  0
 59 63  1  0  0  0
 69 70  1  0  0  0
M  CHG 1  64   1
M  END
> <minimizedAffinity>
-7.66072

$$$$
